
  EPA STORM WATER MANAGEMENT MODEL - VERSION 5.1 (Build 5.3.0.dev0)
  --------------------------------------------------------------

  WARNING 09: time series interval greater than recording interval for Rain Gage RG1
  WARNING 09: time series interval greater than recording interval for Rain Gage RG2
  WARNING 09: time series interval greater than recording interval for Rain Gage RG3
  WARNING 09: time series interval greater than recording interval for Rain Gage RG4
  
  *********************************************************
  NOTE: The summary statistics displayed in this report are
  based on results found at every computational time step,  
  not just on results from each reporting time step.
  *********************************************************
  
  ****************
  Analysis Options
  ****************
  Flow Units ............... CMS
  Process Models:
    Rainfall/Runoff ........ YES
    RDII ................... NO
    Snowmelt ............... NO
    Groundwater ............ NO
    Flow Routing ........... YES
    Ponding Allowed ........ YES
    Water Quality .......... NO
  Infiltration Method ...... HORTON
  Flow Routing Method ...... DYNWAVE
  Surcharge Method ......... EXTRAN
  Starting Date ............ 08/28/2015 00:00:00
  Ending Date .............. 08/28/2015 23:40:00
  Antecedent Dry Days ...... 0.0
  Report Time Step ......... 00:01:00
  Wet Time Step ............ 00:01:00
  Dry Time Step ............ 00:01:00
  Routing Time Step ........ 5.00 sec
  Variable Time Step ....... YES
  Maximum Trials ........... 8
  Number of Threads ........ 1
  Head Tolerance ........... 0.001500 m
  
  
  **************************        Volume         Depth
  Runoff Quantity Continuity     hectare-m            mm
  **************************     ---------       -------
  Total Precipitation ......         4.719        26.188
  Evaporation Loss .........         0.000         0.000
  Infiltration Loss ........         0.000         0.000
  Surface Runoff ...........         4.702        26.091
  Final Storage ............         0.024         0.130
  Continuity Error (%) .....        -0.128
  
  
  **************************        Volume        Volume
  Flow Routing Continuity        hectare-m      10^6 ltr
  **************************     ---------     ---------
  Dry Weather Inflow .......         0.758         7.576
  Wet Weather Inflow .......         4.702        47.016
  Groundwater Inflow .......         0.000         0.000
  RDII Inflow ..............         0.000         0.000
  External Inflow ..........         0.000         0.000
  External Outflow .........         1.617        16.173
  Flooding Loss ............         3.365        33.652
  Evaporation Loss .........         0.000         0.000
  Exfiltration Loss ........         0.000         0.000
  Initial Stored Volume ....         0.000         0.000
  Final Stored Volume ......         0.378         3.783
  Continuity Error (%) .....         1.803
  
  
  *************************
  Highest Continuity Errors
  *************************
  Node T5 (6.48%)
  Node T3 (4.76%)
  Node T1 (2.16%)
  
  
  ***************************
  Time-Step Critical Elements
  ***************************
  None
  
  
  ********************************
  Highest Flow Instability Indexes
  ********************************
  All links are stable.
  
  
  *************************
  Routing Time Step Summary
  *************************
  Minimum Time Step           :     2.19 sec
  Average Time Step           :     5.00 sec
  Maximum Time Step           :     5.00 sec
  Percent in Steady State     :     0.00
  Average Iterations per Step :     2.18
  Percent Not Converging      :     0.41
  
  
  ***************************
  Subcatchment Runoff Summary
  ***************************
  
  ------------------------------------------------------------------------------------------------------------------------------
                            Total      Total      Total      Total     Imperv       Perv      Total       Total     Peak  Runoff
                           Precip      Runon       Evap      Infil     Runoff     Runoff     Runoff      Runoff   Runoff   Coeff
  Subcatchment                 mm         mm         mm         mm         mm         mm         mm    10^6 ltr      CMS
  ------------------------------------------------------------------------------------------------------------------------------
  SC01                      29.70       0.00       0.00       0.00      29.65       0.00      29.65        9.78     1.36   0.998
  SC02                      24.16       0.00       0.00       0.00      24.08       0.00      24.08        5.48     0.64   0.997
  SC03                      24.20       0.00       0.00       0.00      24.19       0.00      24.19        4.35     0.72   1.000
  SC04                      24.16       0.00       0.00       0.00      23.96       0.00      23.96        1.65     0.17   0.992
  SC05                      29.70       0.00       0.00       0.00      29.63       0.00      29.63        4.62     0.63   0.998
  SC06                      24.90       0.00       0.00       0.00      24.71       0.00      24.71        8.04     0.89   0.992
  SC07                      24.16       0.00       0.00       0.00      23.96       0.00      23.96        1.14     0.12   0.992
  SC08                      24.20       0.00       0.00       0.00      24.12       0.00      24.12        6.75     0.88   0.997
  SC09                      24.90       0.00       0.00       0.00      24.79       0.00      24.79        1.71     0.21   0.995
  SC010                     29.70       0.00       0.00       0.00      29.59       0.00      29.59        3.48     0.45   0.996
  
  
  ******************
  Node Depth Summary
  ******************
  
  ---------------------------------------------------------------------------------
                                 Average  Maximum  Maximum  Time of Max    Reported
                                   Depth    Depth      HGL   Occurrence   Max Depth
  Node                 Type       Meters   Meters   Meters  days hr:min      Meters
  ---------------------------------------------------------------------------------
  J1                   JUNCTION     0.07     0.26    34.26     0  08:56        0.26
  J3                   JUNCTION     0.12     0.17    18.17     0  10:44        0.17
  CSO7                 JUNCTION     0.19     1.20    35.20     0  08:10        1.20
  J5                   JUNCTION     0.06     0.16    32.16     0  09:02        0.16
  CSO9                 JUNCTION     0.25     2.00    42.00     0  08:01        2.00
  J8                   JUNCTION     0.10     0.32    36.32     0  08:52        0.32
  CSO8                 JUNCTION     0.24     2.00    34.00     0  08:06        2.00
  J10                  JUNCTION     0.08     0.31    29.31     0  08:17        0.31
  J13                  JUNCTION     0.06     0.21    29.21     0  08:51        0.21
  J15                  JUNCTION     0.19     0.44    15.44     0  08:58        0.44
  J16                  JUNCTION     0.07     0.27    30.27     0  08:56        0.27
  CSO10                JUNCTION     0.18     1.00    31.00     0  08:06        1.00
  J12                  JUNCTION     0.50     1.11    27.11     0  09:24        1.11
  J4                   JUNCTION     0.15     1.44    34.44     0  08:12        0.75
  J6                   JUNCTION     0.07     0.12    25.12     0  10:01        0.12
  J2                   JUNCTION     0.06     0.08    25.08     0  13:49        0.08
  J19                  JUNCTION     0.13     0.17     8.17     0  08:22        0.17
  J9                   JUNCTION     0.10     0.16    29.16     0  09:50        0.16
  J14                  JUNCTION     0.14     0.19    20.19     0  17:29        0.19
  J17                  JUNCTION     0.09     0.15    20.15     0  09:56        0.15
  J7                   JUNCTION     0.07     0.23    39.23     0  09:24        0.23
  J11                  JUNCTION     0.08     0.30    31.30     0  09:06        0.30
  J18                  JUNCTION     0.05     0.16    29.16     0  09:15        0.16
  Out_to_WWTP          OUTFALL      0.13     0.17     6.17     0  22:37        0.17
  T5                   STORAGE      3.06     5.00    32.00     0  08:41        5.00
  T4                   STORAGE      1.52     5.00    32.00     0  09:30        5.00
  T6                   STORAGE      1.83     5.00    36.00     0  08:37        5.00
  T3                   STORAGE      3.04     5.00    27.00     0  09:19        5.00
  T2                   STORAGE      1.56     5.00    26.00     0  09:15        5.00
  T1                   STORAGE      3.35     5.00    15.00     0  08:20        5.00
  
  
  *******************
  Node Inflow Summary
  *******************
  
  -------------------------------------------------------------------------------------------------
                                  Maximum  Maximum                  Lateral       Total        Flow
                                  Lateral    Total  Time of Max      Inflow      Inflow     Balance
                                   Inflow   Inflow   Occurrence      Volume      Volume       Error
  Node                 Type           CMS      CMS  days hr:min    10^6 ltr    10^6 ltr     Percent
  -------------------------------------------------------------------------------------------------
  J1                   JUNCTION     0.645    0.645     0  08:56        5.72        5.72      -0.021
  J3                   JUNCTION     0.000    0.309     0  09:37           0        15.7       0.246
  CSO7                 JUNCTION     0.128    0.128     0  09:01         1.7         1.7       0.012
  J5                   JUNCTION     0.176    0.248     0  09:01         1.9        3.39      -0.011
  CSO9                 JUNCTION     0.219    0.219     0  08:51        2.09        2.09      -0.008
  J8                   JUNCTION     0.913    1.040     0  08:51        9.88        11.8      -0.014
  CSO8                 JUNCTION     0.889    0.889     0  08:46         7.2         7.2      -0.007
  J10                  JUNCTION     0.735    1.213     0  08:16        5.11        11.5      -0.081
  J13                  JUNCTION     0.652    0.652     0  08:51        6.39        6.39      -0.116
  J15                  JUNCTION     0.000    1.864     0  08:56           0        34.9       0.233
  J16                  JUNCTION     1.376    1.376     0  08:56        10.9        10.9      -0.046
  CSO10                JUNCTION     0.450    0.450     0  08:56        3.75        3.75      -0.014
  J12                  JUNCTION     0.000    1.224     0  08:47           0        18.6       0.031
  J4                   JUNCTION     0.000    0.081     0  08:11           0        1.49       0.058
  J6                   JUNCTION     0.000    0.080     0  09:30           0        2.87       0.037
  J2                   JUNCTION     0.000    0.039     0  08:41           0        2.26       0.233
  J19                  JUNCTION     0.000    0.271     0  08:20           0        16.2       0.075
  J9                   JUNCTION     0.000    0.175     0  08:37           0        7.04      -0.007
  J14                  JUNCTION     0.000    0.190     0  09:19           0        10.6       0.082
  J17                  JUNCTION     0.000    0.140     0  09:15           0        5.09       0.048
  J7                   JUNCTION     0.000    0.127     0  09:24           0        1.94       0.054
  J11                  JUNCTION     0.000    0.486     0  09:06           0        6.42       0.030
  J18                  JUNCTION     0.000    0.202     0  09:15           0        3.31      -0.007
  Out_to_WWTP          OUTFALL      0.000    0.271     0  08:22           0        16.2       0.000
  T5                   STORAGE      0.000    0.600     0  08:56           0        5.72       6.930
  T4                   STORAGE      0.000    0.237     0  09:02           0        3.39      -0.003
  T6                   STORAGE      0.000    0.979     0  08:52           0        11.8       0.000
  T3                   STORAGE      0.000    1.734     0  09:27           0        18.6       4.994
  T2                   STORAGE      0.000    0.605     0  08:51           0         6.4       0.102
  T1                   STORAGE      0.000    1.708     0  08:58           0        34.8       2.212
  
  
  **********************
  Node Surcharge Summary
  **********************
  
  Surcharging occurs when water rises above the top of the highest conduit.
  ---------------------------------------------------------------------
                                               Max. Height   Min. Depth
                                   Hours       Above Crown    Below Rim
  Node                 Type      Surcharged         Meters       Meters
  ---------------------------------------------------------------------
  CSO7                 JUNCTION        2.60          0.945        0.000
  CSO9                 JUNCTION        2.47          1.682        0.000
  CSO8                 JUNCTION        2.39          1.547        0.000
  CSO10                JUNCTION        2.37          0.560        0.000
  J4                   JUNCTION        2.54          1.140        0.560
  
  
  *********************
  Node Flooding Summary
  *********************
  
  Flooding refers to all water that overflows a node, whether it ponds or not.
  --------------------------------------------------------------------------
                                                             Total   Maximum
                                 Maximum   Time of Max       Flood    Ponded
                        Hours       Rate    Occurrence      Volume     Depth
  Node                 Flooded       CMS   days hr:min    10^6 ltr    Meters
  --------------------------------------------------------------------------
  CSO7                    2.37     0.056      0  09:01       0.210     0.000
  CSO9                    1.70     0.091      0  08:51       0.149     0.000
  CSO8                    1.74     0.401      0  08:46       0.780     0.000
  CSO10                   1.93     0.247      0  08:56       0.441     0.000
  T5                      5.35     0.561      0  08:56       2.715     0.000
  T4                      1.92     0.132      0  10:02       0.518     0.000
  T6                      3.17     0.804      0  08:52       4.769     0.000
  T3                      5.43     1.544      0  09:27       5.529     0.000
  T2                      2.00     0.379      0  09:56       1.290     0.000
  T1                     13.96     1.437      0  08:58      17.250     0.000
  
  
  **********************
  Storage Volume Summary
  **********************
  
  --------------------------------------------------------------------------------------------------
                         Average     Avg  Evap Exfil       Maximum     Max    Time of Max    Maximum
                          Volume    Pcnt  Pcnt  Pcnt        Volume    Pcnt     Occurrence    Outflow
  Storage Unit           1000 m3    Full  Loss  Loss       1000 m3    Full    days hr:min        CMS
  --------------------------------------------------------------------------------------------------
  T5                       0.306      61     0     0         0.500     100       0  08:41      0.039
  T4                       0.152      30     0     0         0.500     100       0  09:30      0.080
  T6                       0.220      37     0     0         0.600     100       0  08:37      0.175
  T3                       1.580      61     0     0         2.600     100       0  09:19      0.190
  T2                       0.313      31     0     0         1.000     100       0  09:15      0.140
  T1                       0.468      67     0     0         0.700     100       0  08:20      0.271
  
  
  ***********************
  Outfall Loading Summary
  ***********************
  
  -----------------------------------------------------------
                         Flow       Avg       Max       Total
                         Freq      Flow      Flow      Volume
  Outfall Node           Pcnt       CMS       CMS    10^6 ltr
  -----------------------------------------------------------
  Out_to_WWTP           99.43     0.191     0.271      16.173
  -----------------------------------------------------------
  System                99.43     0.191     0.271      16.173
  
  
  ********************
  Link Flow Summary
  ********************
  
  -----------------------------------------------------------------------------
                                 Maximum  Time of Max   Maximum    Max/    Max/
                                  |Flow|   Occurrence   |Veloc|    Full    Full
  Link                 Type          CMS  days hr:min     m/sec    Flow   Depth
  -----------------------------------------------------------------------------
  C1                   CONDUIT     0.039     0  09:31      0.78    0.01    0.13
  C6                   CONDUIT     0.072     0  09:01      1.29    1.14    0.77
  C2                   CONDUIT     0.080     0  10:01      1.48    0.09    0.25
  C9                   CONDUIT     0.127     0  09:25      1.31    0.43    0.55
  C16                  CONDUIT     0.492     0  08:41      1.79    0.05    0.15
  C3                   CONDUIT     0.190     0  09:20      2.08    0.07    0.18
  C19                  CONDUIT     0.140     0  09:49      1.23    0.05    0.29
  C11                  CONDUIT     0.309     0  10:24      1.85    0.02    0.15
  C20                  CONDUIT     1.267     0  08:56      3.47    0.04    0.18
  C22                  CONDUIT     0.202     0  09:15      1.51    0.09    0.38
  C12                  CONDUIT     0.175     0  09:51      0.92    0.01    0.32
  C17                  CONDUIT     1.073     0  08:17      3.27    0.05    0.35
  C10                  CONDUIT     0.979     0  08:52      0.94    0.10    0.61
  C13                  CONDUIT     1.734     0  09:27      1.09    0.10    0.78
  C18                  CONDUIT     0.605     0  08:51      1.54    0.02    0.55
  C23                  CONDUIT     1.708     0  08:58      1.41    0.19    0.65
  C4                   CONDUIT     0.600     0  08:56      1.15    0.15    0.63
  C7                   CONDUIT     0.237     0  09:02      0.90    0.06    0.58
  C14                  CONDUIT     0.271     0  08:22      2.08    0.02    0.09
  C5                   CONDUIT     0.081     0  08:11      1.59    1.39    1.00
  C8                   CONDUIT     0.127     0  09:24      1.85    1.60    0.86
  C15                  CONDUIT     0.486     0  09:06      3.50    1.55    0.83
  C21                  CONDUIT     0.202     0  09:15      1.87    1.16    0.69
  V4                   ORIFICE     0.080     0  09:30                      1.00
  V5                   ORIFICE     0.039     0  08:41                      1.00
  V1                   ORIFICE     0.271     0  08:20                      1.00
  V6                   ORIFICE     0.175     0  08:37                      1.00
  V3                   ORIFICE     0.190     0  09:19                      1.00
  V2                   ORIFICE     0.140     0  09:15                      1.00
  
  
  ***************************
  Flow Classification Summary
  ***************************
  
  -------------------------------------------------------------------------------------
                      Adjusted    ---------- Fraction of Time in Flow Class ---------- 
                       /Actual         Up    Down  Sub   Sup   Up    Down  Norm  Inlet 
  Conduit               Length    Dry  Dry   Dry   Crit  Crit  Crit  Crit  Ltd   Ctrl  
  -------------------------------------------------------------------------------------
  C1                      1.00   0.00  0.00  0.00  0.93  0.07  0.00  0.00  0.97  0.00
  C6                      1.00   0.00  0.00  0.00  0.12  0.88  0.00  0.00  0.00  0.00
  C2                      1.00   0.00  0.00  0.00  0.35  0.65  0.00  0.00  0.97  0.00
  C9                      1.00   0.00  0.00  0.00  1.00  0.00  0.00  0.00  1.00  0.00
  C16                     1.00   0.00  0.25  0.00  0.31  0.44  0.00  0.00  0.28  0.00
  C3                      1.00   0.00  0.00  0.00  0.04  0.96  0.00  0.00  0.07  0.00
  C19                     1.00   0.00  0.00  0.00  0.88  0.11  0.00  0.00  1.00  0.00
  C11                     1.00   0.00  0.00  0.00  0.18  0.82  0.00  0.00  1.00  0.00
  C20                     1.00   0.00  0.00  0.00  0.76  0.24  0.00  0.00  0.99  0.00
  C22                     1.00   0.00  0.00  0.00  0.95  0.05  0.00  0.00  1.00  0.00
  C12                     1.00   0.00  0.00  0.00  0.67  0.33  0.00  0.00  0.88  0.00
  C17                     1.00   0.00  0.00  0.00  0.86  0.14  0.00  0.00  0.98  0.00
  C10                     1.00   0.00  0.00  0.00  0.75  0.25  0.00  0.00  0.98  0.00
  C13                     1.00   0.00  0.00  0.00  0.76  0.24  0.00  0.00  0.38  0.00
  C18                     1.00   0.00  0.00  0.00  0.68  0.32  0.00  0.00  0.98  0.00
  C23                     1.00   0.00  0.00  0.00  0.79  0.21  0.00  0.00  0.96  0.00
  C4                      1.00   0.00  0.00  0.00  0.82  0.18  0.00  0.00  0.98  0.00
  C7                      1.00   0.00  0.00  0.00  0.74  0.26  0.00  0.00  0.83  0.00
  C14                     1.00   0.00  0.00  0.00  0.00  1.00  0.00  0.00  0.09  0.00
  C5                      1.00   0.00  0.00  0.00  0.92  0.08  0.00  0.00  0.87  0.00
  C8                      1.00   0.00  0.00  0.00  0.33  0.67  0.00  0.00  0.00  0.00
  C15                     1.00   0.25  0.00  0.00  0.00  0.75  0.00  0.00  0.00  0.00
  C21                     1.00   0.00  0.00  0.00  0.01  0.99  0.00  0.00  0.00  0.00
  
  
  *************************
  Conduit Surcharge Summary
  *************************
  
  ----------------------------------------------------------------------------
                                                           Hours        Hours 
                         --------- Hours Full --------   Above Full   Capacity
  Conduit                Both Ends  Upstream  Dnstream   Normal Flow   Limited
  ----------------------------------------------------------------------------
  C6                          0.01      2.54      0.01      2.42         0.01
  C10                         0.01      0.01     10.19      0.01         0.01
  C13                         0.01      0.01     15.23      0.01         0.01
  C18                         0.01      0.01      7.91      0.01         0.01
  C23                         0.01      0.01     15.84      0.01         0.01
  C4                          0.01      0.01     15.88      0.01         0.01
  C7                          0.01      0.01      9.95      0.01         0.01
  C5                          2.54      2.60      2.64      2.57         2.48
  C8                          0.01      2.47      0.01      2.47         0.01
  C15                         0.01      2.39      0.01      2.40         0.01
  C21                         0.01      2.37      0.01      2.32         0.01
  

  Analysis begun on:  Tue Sep 21 01:00:12 2021
  Analysis ended on:  Tue Sep 21 01:00:13 2021
  Total elapsed time: 00:00:01