
  EPA STORM WATER MANAGEMENT MODEL - VERSION 5.1 (Build 5.3.0.dev0)
  --------------------------------------------------------------

  WARNING 09: time series interval greater than recording interval for Rain Gage RG1
  WARNING 09: time series interval greater than recording interval for Rain Gage RG2
  WARNING 09: time series interval greater than recording interval for Rain Gage RG3
  WARNING 09: time series interval greater than recording interval for Rain Gage RG4
  
  *********************************************************
  NOTE: The summary statistics displayed in this report are
  based on results found at every computational time step,  
  not just on results from each reporting time step.
  *********************************************************
  
  ****************
  Analysis Options
  ****************
  Flow Units ............... CMS
  Process Models:
    Rainfall/Runoff ........ YES
    RDII ................... NO
    Snowmelt ............... NO
    Groundwater ............ NO
    Flow Routing ........... YES
    Ponding Allowed ........ YES
    Water Quality .......... NO
  Infiltration Method ...... HORTON
  Flow Routing Method ...... DYNWAVE
  Surcharge Method ......... EXTRAN
  Starting Date ............ 08/28/2015 00:00:00
  Ending Date .............. 08/28/2015 23:40:00
  Antecedent Dry Days ...... 0.0
  Report Time Step ......... 00:01:00
  Wet Time Step ............ 00:01:00
  Dry Time Step ............ 00:01:00
  Routing Time Step ........ 5.00 sec
  Variable Time Step ....... YES
  Maximum Trials ........... 8
  Number of Threads ........ 1
  Head Tolerance ........... 0.001500 m
  
  
  **************************        Volume         Depth
  Runoff Quantity Continuity     hectare-m            mm
  **************************     ---------       -------
  Total Precipitation ......         1.894        10.509
  Evaporation Loss .........         0.000         0.000
  Infiltration Loss ........         0.000         0.000
  Surface Runoff ...........         1.796         9.967
  Final Storage ............         0.101         0.559
  Continuity Error (%) .....        -0.164
  
  
  **************************        Volume        Volume
  Flow Routing Continuity        hectare-m      10^6 ltr
  **************************     ---------     ---------
  Dry Weather Inflow .......         0.758         7.576
  Wet Weather Inflow .......         1.795        17.950
  Groundwater Inflow .......         0.000         0.000
  RDII Inflow ..............         0.000         0.000
  External Inflow ..........         0.000         0.000
  External Outflow .........         0.996         9.964
  Flooding Loss ............         0.612         6.124
  Evaporation Loss .........         0.000         0.000
  Exfiltration Loss ........         0.000         0.000
  Initial Stored Volume ....         0.000         0.000
  Final Stored Volume ......         0.743         7.433
  Continuity Error (%) .....         7.853
  
  
  *************************
  Highest Continuity Errors
  *************************
  Node T5 (18.02%)
  Node T3 (13.81%)
  Node T2 (10.85%)
  Node T6 (9.98%)
  Node J12 (7.58%)
  
  
  ***************************
  Time-Step Critical Elements
  ***************************
  None
  
  
  ********************************
  Highest Flow Instability Indexes
  ********************************
  All links are stable.
  
  
  *************************
  Routing Time Step Summary
  *************************
  Minimum Time Step           :     4.50 sec
  Average Time Step           :     5.00 sec
  Maximum Time Step           :     5.00 sec
  Percent in Steady State     :     0.00
  Average Iterations per Step :     2.04
  Percent Not Converging      :     0.04
  
  
  ***************************
  Subcatchment Runoff Summary
  ***************************
  
  ------------------------------------------------------------------------------------------------------------------------------
                            Total      Total      Total      Total     Imperv       Perv      Total       Total     Peak  Runoff
                           Precip      Runon       Evap      Infil     Runoff     Runoff     Runoff      Runoff   Runoff   Coeff
  Subcatchment                 mm         mm         mm         mm         mm         mm         mm    10^6 ltr      CMS
  ------------------------------------------------------------------------------------------------------------------------------
  SC01                      11.42       0.00       0.00       0.00      10.76       0.00      10.76        3.55     0.77   0.942
  SC02                       8.02       0.00       0.00       0.00       7.54       0.00       7.54        1.71     0.33   0.940
  SC03                      11.63       0.00       0.00       0.00      11.53       0.00      11.53        2.08     0.86   0.991
  SC04                       8.02       0.00       0.00       0.00       7.18       0.00       7.18        0.50     0.08   0.896
  SC05                      11.42       0.00       0.00       0.00      10.70       0.00      10.70        1.67     0.34   0.937
  SC06                       9.98       0.00       0.00       0.00       9.33       0.00       9.33        3.04     0.39   0.935
  SC07                       8.02       0.00       0.00       0.00       7.19       0.00       7.19        0.34     0.05   0.896
  SC08                      11.63       0.00       0.00       0.00      11.36       0.00      11.36        3.18     0.92   0.977
  SC09                       9.98       0.00       0.00       0.00       9.58       0.00       9.58        0.66     0.09   0.960
  SC010                     11.42       0.00       0.00       0.00      10.51       0.00      10.51        1.23     0.22   0.920
  
  
  ******************
  Node Depth Summary
  ******************
  
  ---------------------------------------------------------------------------------
                                 Average  Maximum  Maximum  Time of Max    Reported
                                   Depth    Depth      HGL   Occurrence   Max Depth
  Node                 Type       Meters   Meters   Meters  days hr:min      Meters
  ---------------------------------------------------------------------------------
  J1                   JUNCTION     0.05     0.19    34.19     0  21:27        0.19
  J3                   JUNCTION     0.09     0.16    18.16     0  21:51        0.16
  CSO7                 JUNCTION     0.07     0.21    34.21     0  20:21        0.21
  J5                   JUNCTION     0.04     0.12    32.12     0  20:26        0.12
  CSO9                 JUNCTION     0.08     1.11    41.11     0  20:26        0.67
  J8                   JUNCTION     0.08     0.22    36.22     0  20:27        0.22
  CSO8                 JUNCTION     0.11     2.00    34.00     0  20:05        2.00
  J10                  JUNCTION     0.06     0.33    29.33     0  20:12        0.32
  J13                  JUNCTION     0.04     0.15    29.15     0  20:22        0.15
  J15                  JUNCTION     0.13     0.35    15.35     0  21:31        0.35
  J16                  JUNCTION     0.05     0.20    30.20     0  21:27        0.20
  CSO10                JUNCTION     0.08     1.00    31.00     0  21:26        1.00
  J12                  JUNCTION     0.19     1.03    27.03     0  22:04        1.03
  J4                   JUNCTION     0.08     0.23    33.23     0  20:27        0.23
  J6                   JUNCTION     0.05     0.10    25.10     0  21:09        0.10
  J2                   JUNCTION     0.05     0.08    25.08     0  22:10        0.08
  J19                  JUNCTION     0.11     0.17     8.17     0  19:53        0.17
  J9                   JUNCTION     0.08     0.16    29.16     0  21:06        0.16
  J14                  JUNCTION     0.10     0.19    20.19     0  23:29        0.19
  J17                  JUNCTION     0.06     0.12    20.12     0  21:00        0.12
  J7                   JUNCTION     0.06     0.18    39.18     0  20:32        0.18
  J11                  JUNCTION     0.06     0.30    31.30     0  20:37        0.30
  J18                  JUNCTION     0.04     0.15    29.15     0  21:28        0.15
  Out_to_WWTP          OUTFALL      0.10     0.17     6.17     0  19:52        0.17
  T5                   STORAGE      1.25     5.00    32.00     0  21:23        5.00
  T4                   STORAGE      0.39     2.10    29.10     0  21:07        2.10
  T6                   STORAGE      0.96     5.00    36.00     0  20:26        5.00
  T3                   STORAGE      1.02     5.00    27.00     0  21:48        5.00
  T2                   STORAGE      0.35     2.03    23.03     0  20:58        2.03
  T1                   STORAGE      1.44     5.00    15.00     0  19:52        5.00
  
  
  *******************
  Node Inflow Summary
  *******************
  
  -------------------------------------------------------------------------------------------------
                                  Maximum  Maximum                  Lateral       Total        Flow
                                  Lateral    Total  Time of Max      Inflow      Inflow     Balance
                                   Inflow   Inflow   Occurrence      Volume      Volume       Error
  Node                 Type           CMS      CMS  days hr:min    10^6 ltr    10^6 ltr     Percent
  -------------------------------------------------------------------------------------------------
  J1                   JUNCTION     0.352    0.352     0  21:26        2.76        2.76       0.212
  J3                   JUNCTION     0.000    0.279     0  21:50           0        8.13       0.596
  CSO7                 JUNCTION     0.060    0.060     0  20:21       0.906       0.906       0.064
  J5                   JUNCTION     0.080    0.127     0  20:21       0.743        1.64       0.199
  CSO9                 JUNCTION     0.094    0.094     0  20:26        1.04        1.04       0.027
  J8                   JUNCTION     0.408    0.482     0  20:26        4.87        5.91       0.091
  CSO8                 JUNCTION     0.924    0.924     0  20:16        3.63        3.63      -0.003
  J10                  JUNCTION     0.873    1.337     0  20:11        2.83        6.13      -0.031
  J13                  JUNCTION     0.340    0.340     0  20:21        2.62        2.62       0.002
  J15                  JUNCTION     0.000    1.212     0  21:27           0        16.2       1.008
  J16                  JUNCTION     0.778    0.778     0  21:26        4.63        4.63       0.185
  CSO10                JUNCTION     0.225    0.225     0  21:26         1.5         1.5       0.138
  J12                  JUNCTION     0.000    1.321     0  20:12           0        10.7       8.199
  J4                   JUNCTION     0.000    0.057     0  20:22           0       0.906       0.474
  J6                   JUNCTION     0.000    0.051     0  21:08           0         1.4       0.391
  J2                   JUNCTION     0.000    0.039     0  21:23           0        1.36       0.434
  J19                  JUNCTION     0.000    0.271     0  19:52           0        9.98       0.127
  J9                   JUNCTION     0.000    0.175     0  20:27           0        4.54       0.588
  J14                  JUNCTION     0.000    0.190     0  21:48           0        5.39       0.187
  J17                  JUNCTION     0.000    0.089     0  20:58           0        2.06       0.515
  J7                   JUNCTION     0.000    0.092     0  20:26           0        1.04       0.296
  J11                  JUNCTION     0.000    0.486     0  20:37           0        3.31       0.237
  J18                  JUNCTION     0.000    0.200     0  21:27           0         1.5       0.635
  Out_to_WWTP          OUTFALL      0.000    0.271     0  19:54           0        9.96       0.000
  T5                   STORAGE      0.000    0.316     0  21:27           0        2.75      21.981
  T4                   STORAGE      0.000    0.123     0  20:26           0        1.64       7.013
  T6                   STORAGE      0.000    0.460     0  20:27           0         5.9      11.090
  T3                   STORAGE      0.000    1.254     0  20:18           0        9.93      16.020
  T2                   STORAGE      0.000    0.311     0  20:22           0        2.62      12.176
  T1                   STORAGE      0.000    1.062     0  21:31           0        16.1       5.430
  
  
  **********************
  Node Surcharge Summary
  **********************
  
  Surcharging occurs when water rises above the top of the highest conduit.
  ---------------------------------------------------------------------
                                               Max. Height   Min. Depth
                                   Hours       Above Crown    Below Rim
  Node                 Type      Surcharged         Meters       Meters
  ---------------------------------------------------------------------
  CSO9                 JUNCTION        0.13          0.788        0.894
  CSO8                 JUNCTION        0.64          1.547        0.000
  CSO10                JUNCTION        0.10          0.560        0.000
  
  
  *********************
  Node Flooding Summary
  *********************
  
  Flooding refers to all water that overflows a node, whether it ponds or not.
  --------------------------------------------------------------------------
                                                             Total   Maximum
                                 Maximum   Time of Max       Flood    Ponded
                        Hours       Rate    Occurrence      Volume     Depth
  Node                 Flooded       CMS   days hr:min    10^6 ltr    Meters
  --------------------------------------------------------------------------
  CSO8                    0.50     0.438      0  20:16       0.317     0.000
  CSO10                   0.02     0.047      0  21:26       0.001     0.000
  T5                      1.18     0.276      0  21:27       0.396     0.000
  T6                      0.84     0.285      0  20:28       0.365     0.000
  T3                      0.98     0.445      0  22:07       0.477     0.000
  T1                      3.80     0.792      0  21:31       4.569     0.000
  
  
  **********************
  Storage Volume Summary
  **********************
  
  --------------------------------------------------------------------------------------------------
                         Average     Avg  Evap Exfil       Maximum     Max    Time of Max    Maximum
                          Volume    Pcnt  Pcnt  Pcnt        Volume    Pcnt     Occurrence    Outflow
  Storage Unit           1000 m3    Full  Loss  Loss       1000 m3    Full    days hr:min        CMS
  --------------------------------------------------------------------------------------------------
  T5                       0.125      25     0     0         0.500     100       0  21:23      0.039
  T4                       0.039       8     0     0         0.210      42       0  21:07      0.051
  T6                       0.115      19     0     0         0.600     100       0  20:26      0.175
  T3                       0.530      20     0     0         2.600     100       0  21:48      0.380
  T2                       0.070       7     0     0         0.406      41       0  20:58      0.089
  T1                       0.202      29     0     0         0.700     100       0  19:52      0.271
  
  
  ***********************
  Outfall Loading Summary
  ***********************
  
  -----------------------------------------------------------
                         Flow       Avg       Max       Total
                         Freq      Flow      Flow      Volume
  Outfall Node           Pcnt       CMS       CMS    10^6 ltr
  -----------------------------------------------------------
  Out_to_WWTP           99.43     0.118     0.271       9.964
  -----------------------------------------------------------
  System                99.43     0.118     0.271       9.964
  
  
  ********************
  Link Flow Summary
  ********************
  
  -----------------------------------------------------------------------------
                                 Maximum  Time of Max   Maximum    Max/    Max/
                                  |Flow|   Occurrence   |Veloc|    Full    Full
  Link                 Type          CMS  days hr:min     m/sec    Flow   Depth
  -----------------------------------------------------------------------------
  C1                   CONDUIT     0.039     0  22:09      0.76    0.01    0.12
  C6                   CONDUIT     0.053     0  20:27      1.25    0.84    0.58
  C2                   CONDUIT     0.051     0  21:09      1.13    0.06    0.22
  C9                   CONDUIT     0.082     0  20:32      1.14    0.28    0.40
  C16                  CONDUIT     0.490     0  20:27      1.79    0.05    0.15
  C3                   CONDUIT     0.190     0  21:50      2.06    0.07    0.18
  C19                  CONDUIT     0.089     0  21:00      0.96    0.03    0.23
  C11                  CONDUIT     0.279     0  21:51      1.84    0.01    0.13
  C20                  CONDUIT     0.693     0  21:27      2.91    0.02    0.13
  C22                  CONDUIT     0.180     0  21:29      1.36    0.08    0.31
  C12                  CONDUIT     0.175     0  21:06      1.00    0.01    0.30
  C17                  CONDUIT     1.162     0  20:12      3.39    0.06    0.30
  C10                  CONDUIT     0.460     0  20:27      0.94    0.05    0.57
  C13                  CONDUIT     1.254     0  20:18      0.85    0.07    0.76
  C18                  CONDUIT     0.311     0  20:22      1.17    0.01    0.52
  C23                  CONDUIT     1.062     0  21:31      0.93    0.12    0.62
  C4                   CONDUIT     0.316     0  21:27      1.13    0.08    0.59
  C7                   CONDUIT     0.123     0  20:26      0.90    0.03    0.56
  C14                  CONDUIT     0.271     0  19:54      2.08    0.02    0.09
  C5                   CONDUIT     0.057     0  20:22      1.27    0.98    0.83
  C8                   CONDUIT     0.092     0  20:26      1.40    1.16    0.79
  C15                  CONDUIT     0.486     0  20:37      3.58    1.55    0.83
  C21                  CONDUIT     0.200     0  21:27      1.88    1.15    0.68
  V4                   ORIFICE     0.051     0  21:08                      1.00
  V5                   ORIFICE     0.039     0  21:23                      1.00
  V1                   ORIFICE     0.271     0  19:52                      1.00
  V6                   ORIFICE     0.175     0  20:27                      1.00
  V3                   ORIFICE     0.190     0  21:48                      1.00
  V2                   ORIFICE     0.089     0  20:58                      1.00
  
  
  ***************************
  Flow Classification Summary
  ***************************
  
  -------------------------------------------------------------------------------------
                      Adjusted    ---------- Fraction of Time in Flow Class ---------- 
                       /Actual         Up    Down  Sub   Sup   Up    Down  Norm  Inlet 
  Conduit               Length    Dry  Dry   Dry   Crit  Crit  Crit  Crit  Ltd   Ctrl  
  -------------------------------------------------------------------------------------
  C1                      1.00   0.00  0.00  0.00  0.93  0.07  0.00  0.00  0.97  0.00
  C6                      1.00   0.00  0.00  0.00  0.01  0.99  0.00  0.00  0.00  0.00
  C2                      1.00   0.00  0.00  0.00  0.28  0.71  0.00  0.00  0.97  0.00
  C9                      1.00   0.00  0.00  0.00  1.00  0.00  0.00  0.00  1.00  0.00
  C16                     1.00   0.00  0.25  0.00  0.53  0.21  0.00  0.00  0.43  0.00
  C3                      1.00   0.00  0.00  0.00  0.04  0.96  0.00  0.00  0.07  0.00
  C19                     1.00   0.00  0.00  0.00  1.00  0.00  0.00  0.00  1.00  0.00
  C11                     1.00   0.00  0.00  0.00  0.10  0.90  0.00  0.00  1.00  0.00
  C20                     1.00   0.00  0.00  0.00  0.83  0.17  0.00  0.00  0.99  0.00
  C22                     1.00   0.00  0.00  0.00  0.99  0.01  0.00  0.00  1.00  0.00
  C12                     1.00   0.00  0.00  0.00  0.28  0.72  0.00  0.00  0.91  0.00
  C17                     1.00   0.00  0.00  0.00  0.54  0.46  0.00  0.00  0.99  0.00
  C10                     1.00   0.00  0.00  0.00  0.77  0.23  0.00  0.00  0.98  0.00
  C13                     1.00   0.00  0.00  0.00  0.76  0.24  0.00  0.00  0.79  0.00
  C18                     1.00   0.00  0.00  0.00  0.48  0.52  0.00  0.00  0.98  0.00
  C23                     1.00   0.00  0.00  0.00  0.80  0.20  0.00  0.00  0.96  0.00
  C4                      1.00   0.00  0.00  0.00  0.82  0.18  0.00  0.00  0.98  0.00
  C7                      1.00   0.00  0.00  0.00  0.74  0.26  0.00  0.00  0.83  0.00
  C14                     1.00   0.00  0.00  0.00  0.00  1.00  0.00  0.00  0.37  0.00
  C5                      1.00   0.00  0.00  0.00  0.91  0.09  0.00  0.00  0.99  0.00
  C8                      1.00   0.00  0.00  0.00  0.19  0.81  0.00  0.00  0.00  0.00
  C15                     1.00   0.25  0.00  0.00  0.01  0.74  0.00  0.00  0.01  0.00
  C21                     1.00   0.00  0.00  0.00  0.00  1.00  0.00  0.00  0.00  0.00
  
  
  *************************
  Conduit Surcharge Summary
  *************************
  
  ----------------------------------------------------------------------------
                                                           Hours        Hours 
                         --------- Hours Full --------   Above Full   Capacity
  Conduit                Both Ends  Upstream  Dnstream   Normal Flow   Limited
  ----------------------------------------------------------------------------
  C10                         0.01      0.01      4.42      0.01         0.01
  C13                         0.01      0.01      3.69      0.01         0.01
  C18                         0.01      0.01      0.33      0.01         0.01
  C23                         0.01      0.01      4.62      0.01         0.01
  C4                          0.01      0.01      7.51      0.01         0.01
  C7                          0.01      0.01      3.61      0.01         0.01
  C8                          0.01      0.13      0.01      0.10         0.01
  C15                         0.01      0.64      0.01      0.66         0.01
  C21                         0.01      0.10      0.01      0.07         0.01
  

  Analysis begun on:  Tue Sep 21 01:27:43 2021
  Analysis ended on:  Tue Sep 21 01:27:43 2021
  Total elapsed time: < 1 sec