
  EPA STORM WATER MANAGEMENT MODEL - VERSION 5.1 (Build 5.3.0.dev0)
  --------------------------------------------------------------

  WARNING 09: time series interval greater than recording interval for Rain Gage RG1
  WARNING 09: time series interval greater than recording interval for Rain Gage RG2
  WARNING 09: time series interval greater than recording interval for Rain Gage RG3
  WARNING 09: time series interval greater than recording interval for Rain Gage RG4
  
  *********************************************************
  NOTE: The summary statistics displayed in this report are
  based on results found at every computational time step,  
  not just on results from each reporting time step.
  *********************************************************
  
  ****************
  Analysis Options
  ****************
  Flow Units ............... CMS
  Process Models:
    Rainfall/Runoff ........ YES
    RDII ................... NO
    Snowmelt ............... NO
    Groundwater ............ NO
    Flow Routing ........... YES
    Ponding Allowed ........ YES
    Water Quality .......... NO
  Infiltration Method ...... HORTON
  Flow Routing Method ...... DYNWAVE
  Surcharge Method ......... EXTRAN
  Starting Date ............ 08/28/2015 00:00:00
  Ending Date .............. 08/28/2015 23:40:00
  Antecedent Dry Days ...... 0.0
  Report Time Step ......... 00:01:00
  Wet Time Step ............ 00:01:00
  Dry Time Step ............ 00:01:00
  Routing Time Step ........ 5.00 sec
  Variable Time Step ....... YES
  Maximum Trials ........... 8
  Number of Threads ........ 1
  Head Tolerance ........... 0.001500 m
  
  
  **************************        Volume         Depth
  Runoff Quantity Continuity     hectare-m            mm
  **************************     ---------       -------
  Total Precipitation ......         2.242        12.440
  Evaporation Loss .........         0.000         0.000
  Infiltration Loss ........         0.000         0.000
  Surface Runoff ...........         2.217        12.304
  Final Storage ............         0.030         0.166
  Continuity Error (%) .....        -0.234
  
  
  **************************        Volume        Volume
  Flow Routing Continuity        hectare-m      10^6 ltr
  **************************     ---------     ---------
  Dry Weather Inflow .......         0.758         7.576
  Wet Weather Inflow .......         2.217        22.171
  Groundwater Inflow .......         0.000         0.000
  RDII Inflow ..............         0.000         0.000
  External Inflow ..........         0.000         0.000
  External Outflow .........         1.716        17.157
  Flooding Loss ............         0.800         7.998
  Evaporation Loss .........         0.000         0.000
  Exfiltration Loss ........         0.000         0.000
  Initial Stored Volume ....         0.000         0.000
  Final Stored Volume ......         0.375         3.746
  Continuity Error (%) .....         2.841
  
  
  *************************
  Highest Continuity Errors
  *************************
  Node T5 (11.04%)
  Node T3 (6.16%)
  Node T1 (2.71%)
  Node T6 (1.66%)
  
  
  ***************************
  Time-Step Critical Elements
  ***************************
  None
  
  
  ********************************
  Highest Flow Instability Indexes
  ********************************
  All links are stable.
  
  
  *************************
  Routing Time Step Summary
  *************************
  Minimum Time Step           :     4.50 sec
  Average Time Step           :     5.00 sec
  Maximum Time Step           :     5.00 sec
  Percent in Steady State     :     0.00
  Average Iterations per Step :     2.08
  Percent Not Converging      :     0.27
  
  
  ***************************
  Subcatchment Runoff Summary
  ***************************
  
  ------------------------------------------------------------------------------------------------------------------------------
                            Total      Total      Total      Total     Imperv       Perv      Total       Total     Peak  Runoff
                           Precip      Runon       Evap      Infil     Runoff     Runoff     Runoff      Runoff   Runoff   Coeff
  Subcatchment                 mm         mm         mm         mm         mm         mm         mm    10^6 ltr      CMS
  ------------------------------------------------------------------------------------------------------------------------------
  SC01                      15.59       0.00       0.00       0.00      15.53       0.00      15.53        5.13     3.44   0.996
  SC02                      10.00       0.00       0.00       0.00       9.91       0.00       9.91        2.26     0.59   0.991
  SC03                      10.09       0.00       0.00       0.00      10.05       0.00      10.05        1.81     0.43   0.996
  SC04                      10.00       0.00       0.00       0.00       9.82       0.00       9.82        0.68     0.11   0.982
  SC05                      15.59       0.00       0.00       0.00      15.51       0.00      15.51        2.42     1.51   0.995
  SC06                      12.49       0.00       0.00       0.00      12.13       0.00      12.13        3.95     0.33   0.971
  SC07                      10.00       0.00       0.00       0.00       9.82       0.00       9.82        0.47     0.07   0.982
  SC08                      10.09       0.00       0.00       0.00      10.01       0.00      10.01        2.80     0.37   0.992
  SC09                      12.49       0.00       0.00       0.00      12.29       0.00      12.29        0.85     0.11   0.984
  SC010                     15.59       0.00       0.00       0.00      15.46       0.00      15.46        1.82     0.93   0.991
  
  
  ******************
  Node Depth Summary
  ******************
  
  ---------------------------------------------------------------------------------
                                 Average  Maximum  Maximum  Time of Max    Reported
                                   Depth    Depth      HGL   Occurrence   Max Depth
  Node                 Type       Meters   Meters   Meters  days hr:min      Meters
  ---------------------------------------------------------------------------------
  J1                   JUNCTION     0.06     0.40    34.40     0  20:36        0.39
  J3                   JUNCTION     0.12     0.17    18.17     0  12:17        0.17
  CSO7                 JUNCTION     0.08     1.20    35.20     0  10:21        1.20
  J5                   JUNCTION     0.05     0.14    32.14     0  10:28        0.14
  CSO9                 JUNCTION     0.09     1.68    41.68     0  20:31        1.65
  J8                   JUNCTION     0.09     0.21    36.21     0  20:34        0.21
  CSO8                 JUNCTION     0.09     2.00    34.00     0  10:16        0.82
  J10                  JUNCTION     0.07     0.23    29.23     0  10:22        0.23
  J13                  JUNCTION     0.05     0.20    29.20     0  10:26        0.20
  J15                  JUNCTION     0.17     0.55    15.55     0  20:39        0.55
  J16                  JUNCTION     0.05     0.44    30.44     0  20:36        0.42
  CSO10                JUNCTION     0.10     1.00    31.00     0  10:26        1.00
  J12                  JUNCTION     0.31     0.94    26.94     0  13:37        0.94
  J4                   JUNCTION     0.09     1.44    34.44     0  10:27        0.75
  J6                   JUNCTION     0.06     0.10    25.10     0  11:56        0.10
  J2                   JUNCTION     0.06     0.08    25.08     0  11:51        0.08
  J19                  JUNCTION     0.14     0.17     8.17     0  20:36        0.17
  J9                   JUNCTION     0.11     0.16    29.16     0  12:20        0.16
  J14                  JUNCTION     0.14     0.19    20.19     0  14:16        0.19
  J17                  JUNCTION     0.07     0.12    20.12     0  11:16        0.12
  J7                   JUNCTION     0.07     0.19    39.19     0  20:34        0.19
  J11                  JUNCTION     0.07     0.24    31.24     0  10:22        0.24
  J18                  JUNCTION     0.04     0.16    29.16     0  20:51        0.16
  Out_to_WWTP          OUTFALL      0.14     0.17     6.17     0  22:07        0.17
  T5                   STORAGE      2.69     5.00    32.00     0  11:03        5.00
  T4                   STORAGE      0.65     2.50    29.50     0  11:55        2.50
  T6                   STORAGE      1.48     4.59    35.59     0  12:17        4.59
  T3                   STORAGE      2.68     4.94    26.94     0  13:32        4.94
  T2                   STORAGE      0.58     2.26    23.26     0  11:15        2.26
  T1                   STORAGE      3.43     5.00    15.00     0  09:06        5.00
  
  
  *******************
  Node Inflow Summary
  *******************
  
  -------------------------------------------------------------------------------------------------
                                  Maximum  Maximum                  Lateral       Total        Flow
                                  Lateral    Total  Time of Max      Inflow      Inflow     Balance
                                   Inflow   Inflow   Occurrence      Volume      Volume       Error
  Node                 Type           CMS      CMS  days hr:min    10^6 ltr    10^6 ltr     Percent
  -------------------------------------------------------------------------------------------------
  J1                   JUNCTION     1.521    1.521     0  20:36        3.51        3.51       0.000
  J3                   JUNCTION     0.000    0.282     0  12:15           0        14.5       0.248
  CSO7                 JUNCTION     0.085    0.085     0  10:26        1.03        1.03       0.021
  J5                   JUNCTION     0.113    0.173     0  10:27       0.926        1.96      -0.026
  CSO9                 JUNCTION     0.110    0.110     0  20:31        1.23        1.23       0.006
  J8                   JUNCTION     0.351    0.419     0  20:31        5.78        7.01      -0.082
  CSO8                 JUNCTION     0.381    0.381     0  10:16        3.25        3.25      -0.022
  J10                  JUNCTION     0.440    0.621     0  10:21        2.56        5.81      -0.092
  J13                  JUNCTION     0.605    0.605     0  10:21        3.16        3.16      -0.266
  J15                  JUNCTION     0.000    3.687     0  20:36           0        25.7       0.319
  J16                  JUNCTION     3.452    3.452     0  20:36         6.2         6.2      -0.082
  CSO10                JUNCTION     0.932    0.932     0  20:36        2.09        2.09      -0.064
  J12                  JUNCTION     0.000    0.744     0  10:22           0        12.6       0.231
  J4                   JUNCTION     0.000    0.081     0  10:26           0        1.03       0.069
  J6                   JUNCTION     0.000    0.056     0  11:55           0        1.95       0.029
  J2                   JUNCTION     0.000    0.039     0  11:03           0        2.16       0.257
  J19                  JUNCTION     0.000    0.271     0  09:06           0        17.2       0.069
  J9                   JUNCTION     0.000    0.168     0  12:17           0        6.82       0.157
  J14                  JUNCTION     0.000    0.188     0  13:32           0        10.4       0.078
  J17                  JUNCTION     0.000    0.094     0  11:15           0        3.16       0.034
  J7                   JUNCTION     0.000    0.110     0  20:31           0        1.23       0.154
  J11                  JUNCTION     0.000    0.376     0  10:16           0        3.25       0.053
  J18                  JUNCTION     0.000    0.202     0  20:51           0        1.81       0.043
  Out_to_WWTP          OUTFALL      0.000    0.271     0  20:36           0        17.2       0.000
  T5                   STORAGE      0.000    1.390     0  20:36           0        3.51      12.407
  T4                   STORAGE      0.000    0.170     0  10:28           0        1.96       0.064
  T6                   STORAGE      0.000    0.404     0  20:34           0        7.01       1.692
  T3                   STORAGE      0.000    0.703     0  10:24           0        12.6       6.567
  T2                   STORAGE      0.000    0.537     0  10:26           0        3.17       0.294
  T1                   STORAGE      0.000    2.567     0  20:39           0        25.6       2.783
  
  
  **********************
  Node Surcharge Summary
  **********************
  
  Surcharging occurs when water rises above the top of the highest conduit.
  ---------------------------------------------------------------------
                                               Max. Height   Min. Depth
                                   Hours       Above Crown    Below Rim
  Node                 Type      Surcharged         Meters       Meters
  ---------------------------------------------------------------------
  CSO7                 JUNCTION        0.34          0.945        0.000
  CSO9                 JUNCTION        0.18          1.362        0.320
  CSO8                 JUNCTION        0.06          1.547        0.000
  CSO10                JUNCTION        0.45          0.560        0.000
  J4                   JUNCTION        0.29          1.143        0.557
  
  
  *********************
  Node Flooding Summary
  *********************
  
  Flooding refers to all water that overflows a node, whether it ponds or not.
  --------------------------------------------------------------------------
                                                             Total   Maximum
                                 Maximum   Time of Max       Flood    Ponded
                        Hours       Rate    Occurrence      Volume     Depth
  Node                 Flooded       CMS   days hr:min    10^6 ltr    Meters
  --------------------------------------------------------------------------
  CSO7                    0.10     0.013      0  10:27       0.001     0.000
  CSO8                    0.01     0.059      0  10:16       0.000     0.000
  CSO10                   0.34     0.730      0  20:36       0.281     0.000
  T5                      2.31     0.748      0  20:40       0.565     0.000
  T1                     10.24     2.296      0  20:39       7.151     0.000
  
  
  **********************
  Storage Volume Summary
  **********************
  
  --------------------------------------------------------------------------------------------------
                         Average     Avg  Evap Exfil       Maximum     Max    Time of Max    Maximum
                          Volume    Pcnt  Pcnt  Pcnt        Volume    Pcnt     Occurrence    Outflow
  Storage Unit           1000 m3    Full  Loss  Loss       1000 m3    Full    days hr:min        CMS
  --------------------------------------------------------------------------------------------------
  T5                       0.269      54     0     0         0.500     100       0  11:03      0.039
  T4                       0.065      13     0     0         0.250      50       0  11:55      0.056
  T6                       0.177      30     0     0         0.551      92       0  12:17      0.168
  T3                       1.394      54     0     0         2.568      99       0  13:32      0.188
  T2                       0.115      12     0     0         0.452      45       0  11:15      0.094
  T1                       0.480      69     0     0         0.700     100       0  09:06      0.271
  
  
  ***********************
  Outfall Loading Summary
  ***********************
  
  -----------------------------------------------------------
                         Flow       Avg       Max       Total
                         Freq      Flow      Flow      Volume
  Outfall Node           Pcnt       CMS       CMS    10^6 ltr
  -----------------------------------------------------------
  Out_to_WWTP           99.43     0.203     0.271      17.157
  -----------------------------------------------------------
  System                99.43     0.203     0.271      17.157
  
  
  ********************
  Link Flow Summary
  ********************
  
  -----------------------------------------------------------------------------
                                 Maximum  Time of Max   Maximum    Max/    Max/
                                  |Flow|   Occurrence   |Veloc|    Full    Full
  Link                 Type          CMS  days hr:min     m/sec    Flow   Depth
  -----------------------------------------------------------------------------
  C1                   CONDUIT     0.039     0  11:51      0.84    0.01    0.12
  C6                   CONDUIT     0.070     0  10:28      1.28    1.12    0.73
  C2                   CONDUIT     0.056     0  11:56      1.20    0.06    0.22
  C9                   CONDUIT     0.090     0  20:34      1.23    0.31    0.40
  C16                  CONDUIT     0.320     0  10:23      1.53    0.03    0.12
  C3                   CONDUIT     0.188     0  13:33      2.08    0.07    0.18
  C19                  CONDUIT     0.094     0  11:16      0.97    0.03    0.30
  C11                  CONDUIT     0.282     0  12:17      1.87    0.01    0.17
  C20                  CONDUIT     3.275     0  20:36      6.27    0.10    0.23
  C22                  CONDUIT     0.202     0  20:51      1.44    0.09    0.45
  C12                  CONDUIT     0.168     0  12:20      1.36    0.01    0.27
  C17                  CONDUIT     0.592     0  10:22      2.71    0.03    0.25
  C10                  CONDUIT     0.404     0  20:34      1.43    0.04    0.56
  C13                  CONDUIT     0.703     0  10:24      1.28    0.04    0.73
  C18                  CONDUIT     0.537     0  10:26      1.91    0.02    0.53
  C23                  CONDUIT     2.567     0  20:39      1.99    0.28    0.68
  C4                   CONDUIT     1.390     0  20:36      2.37    0.34    0.70
  C7                   CONDUIT     0.170     0  10:28      1.07    0.04    0.57
  C14                  CONDUIT     0.271     0  20:36      2.08    0.02    0.09
  C5                   CONDUIT     0.081     0  10:26      1.65    1.39    1.00
  C8                   CONDUIT     0.110     0  20:31      1.74    1.39    0.80
  C15                  CONDUIT     0.376     0  10:16      3.19    1.19    0.76
  C21                  CONDUIT     0.202     0  20:51      2.06    1.16    0.69
  V4                   ORIFICE     0.056     0  11:55                      1.00
  V5                   ORIFICE     0.039     0  11:03                      1.00
  V1                   ORIFICE     0.271     0  09:06                      1.00
  V6                   ORIFICE     0.168     0  12:17                      1.00
  V3                   ORIFICE     0.188     0  13:32                      1.00
  V2                   ORIFICE     0.094     0  11:15                      1.00
  
  
  ***************************
  Flow Classification Summary
  ***************************
  
  -------------------------------------------------------------------------------------
                      Adjusted    ---------- Fraction of Time in Flow Class ---------- 
                       /Actual         Up    Down  Sub   Sup   Up    Down  Norm  Inlet 
  Conduit               Length    Dry  Dry   Dry   Crit  Crit  Crit  Crit  Ltd   Ctrl  
  -------------------------------------------------------------------------------------
  C1                      1.00   0.00  0.00  0.00  0.93  0.07  0.00  0.00  0.97  0.00
  C6                      1.00   0.00  0.00  0.00  0.03  0.97  0.00  0.00  0.00  0.00
  C2                      1.00   0.00  0.00  0.00  0.49  0.51  0.00  0.00  0.97  0.00
  C9                      1.00   0.00  0.00  0.00  0.99  0.01  0.00  0.00  1.00  0.00
  C16                     1.00   0.00  0.09  0.00  0.59  0.32  0.00  0.00  0.38  0.00
  C3                      1.00   0.00  0.00  0.00  0.04  0.96  0.00  0.00  0.07  0.00
  C19                     1.00   0.00  0.00  0.00  1.00  0.00  0.00  0.00  1.00  0.00
  C11                     1.00   0.00  0.00  0.00  0.09  0.91  0.00  0.00  1.00  0.00
  C20                     1.00   0.00  0.00  0.00  0.79  0.21  0.00  0.00  0.99  0.00
  C22                     1.00   0.00  0.00  0.00  0.99  0.01  0.00  0.00  1.00  0.00
  C12                     1.00   0.00  0.00  0.00  0.55  0.45  0.00  0.00  0.85  0.00
  C17                     1.00   0.00  0.00  0.00  0.70  0.30  0.00  0.00  0.98  0.00
  C10                     1.00   0.00  0.00  0.00  0.90  0.10  0.00  0.00  0.97  0.00
  C13                     1.00   0.00  0.00  0.00  0.88  0.12  0.00  0.00  0.55  0.00
  C18                     1.00   0.00  0.00  0.00  0.77  0.23  0.00  0.00  0.97  0.00
  C23                     1.00   0.00  0.00  0.00  0.87  0.13  0.00  0.00  0.95  0.00
  C4                      1.00   0.00  0.00  0.00  0.88  0.12  0.00  0.00  0.98  0.00
  C7                      1.00   0.00  0.00  0.00  0.79  0.21  0.00  0.00  0.86  0.00
  C14                     1.00   0.00  0.00  0.00  0.00  1.00  0.00  0.00  0.21  0.00
  C5                      1.00   0.00  0.00  0.00  0.92  0.08  0.00  0.00  0.96  0.00
  C8                      1.00   0.00  0.00  0.00  0.11  0.89  0.00  0.00  0.00  0.00
  C15                     1.00   0.09  0.00  0.00  0.01  0.90  0.00  0.00  0.01  0.00
  C21                     1.00   0.00  0.00  0.00  0.00  1.00  0.00  0.00  0.00  0.00
  
  
  *************************
  Conduit Surcharge Summary
  *************************
  
  ----------------------------------------------------------------------------
                                                           Hours        Hours 
                         --------- Hours Full --------   Above Full   Capacity
  Conduit                Both Ends  Upstream  Dnstream   Normal Flow   Limited
  ----------------------------------------------------------------------------
  C6                          0.01      0.29      0.01      0.13         0.01
  C10                         0.01      0.01      8.99      0.01         0.01
  C13                         0.01      0.01     14.81      0.01         0.01
  C18                         0.01      0.01      1.76      0.01         0.01
  C23                         0.01      0.01     15.95      0.01         0.01
  C4                          0.01      0.01     15.77      0.01         0.01
  C7                          0.01      0.01      6.58      0.01         0.01
  C5                          0.27      0.34      0.40      0.30         0.21
  C8                          0.01      0.18      0.01      0.17         0.01
  C15                         0.01      0.06      0.01      0.13         0.01
  C21                         0.01      0.45      0.01      0.43         0.01
  

  Analysis begun on:  Tue Sep 21 01:33:28 2021
  Analysis ended on:  Tue Sep 21 01:33:28 2021
  Total elapsed time: < 1 sec