
  EPA STORM WATER MANAGEMENT MODEL - VERSION 5.1 (Build 5.3.0.dev0)
  --------------------------------------------------------------

  WARNING 09: time series interval greater than recording interval for Rain Gage RG1
  WARNING 09: time series interval greater than recording interval for Rain Gage RG2
  WARNING 09: time series interval greater than recording interval for Rain Gage RG3
  WARNING 09: time series interval greater than recording interval for Rain Gage RG4
  
  *********************************************************
  NOTE: The summary statistics displayed in this report are
  based on results found at every computational time step,  
  not just on results from each reporting time step.
  *********************************************************
  
  ****************
  Analysis Options
  ****************
  Flow Units ............... CMS
  Process Models:
    Rainfall/Runoff ........ YES
    RDII ................... NO
    Snowmelt ............... NO
    Groundwater ............ NO
    Flow Routing ........... YES
    Ponding Allowed ........ YES
    Water Quality .......... NO
  Infiltration Method ...... HORTON
  Flow Routing Method ...... DYNWAVE
  Surcharge Method ......... EXTRAN
  Starting Date ............ 08/28/2015 00:00:00
  Ending Date .............. 08/28/2015 23:40:00
  Antecedent Dry Days ...... 0.0
  Report Time Step ......... 00:01:00
  Wet Time Step ............ 00:01:00
  Dry Time Step ............ 00:01:00
  Routing Time Step ........ 5.00 sec
  Variable Time Step ....... YES
  Maximum Trials ........... 8
  Number of Threads ........ 1
  Head Tolerance ........... 0.001500 m
  
  
  **************************        Volume         Depth
  Runoff Quantity Continuity     hectare-m            mm
  **************************     ---------       -------
  Total Precipitation ......         2.693        14.944
  Evaporation Loss .........         0.000         0.000
  Infiltration Loss ........         0.000         0.000
  Surface Runoff ...........         2.657        14.744
  Final Storage ............         0.041         0.229
  Continuity Error (%) .....        -0.191
  
  
  **************************        Volume        Volume
  Flow Routing Continuity        hectare-m      10^6 ltr
  **************************     ---------     ---------
  Dry Weather Inflow .......         0.758         7.576
  Wet Weather Inflow .......         2.657        26.567
  Groundwater Inflow .......         0.000         0.000
  RDII Inflow ..............         0.000         0.000
  External Inflow ..........         0.000         0.000
  External Outflow .........         2.026        20.260
  Flooding Loss ............         1.136        11.363
  Evaporation Loss .........         0.000         0.000
  Exfiltration Loss ........         0.000         0.000
  Initial Stored Volume ....         0.000         0.000
  Final Stored Volume ......         0.239         2.394
  Continuity Error (%) .....         0.368
  
  
  *************************
  Highest Continuity Errors
  *************************
  Node T5 (3.83%)
  Node T3 (3.31%)
  Node T1 (1.51%)
  
  
  ***************************
  Time-Step Critical Elements
  ***************************
  None
  
  
  ********************************
  Highest Flow Instability Indexes
  ********************************
  Link C13 (1)
  
  
  *************************
  Routing Time Step Summary
  *************************
  Minimum Time Step           :     4.50 sec
  Average Time Step           :     5.00 sec
  Maximum Time Step           :     5.00 sec
  Percent in Steady State     :     0.00
  Average Iterations per Step :     2.08
  Percent Not Converging      :     0.22
  
  
  ***************************
  Subcatchment Runoff Summary
  ***************************
  
  ------------------------------------------------------------------------------------------------------------------------------
                            Total      Total      Total      Total     Imperv       Perv      Total       Total     Peak  Runoff
                           Precip      Runon       Evap      Infil     Runoff     Runoff     Runoff      Runoff   Runoff   Coeff
  Subcatchment                 mm         mm         mm         mm         mm         mm         mm    10^6 ltr      CMS
  ------------------------------------------------------------------------------------------------------------------------------
  SC01                      14.85       0.00       0.00       0.00      14.65       0.00      14.65        4.83     1.86   0.986
  SC02                      17.00       0.00       0.00       0.00      16.76       0.00      16.76        3.81     1.32   0.986
  SC03                      15.19       0.00       0.00       0.00      15.07       0.00      15.07        2.71     1.36   0.992
  SC04                      17.00       0.00       0.00       0.00      16.62       0.00      16.62        1.15     0.29   0.977
  SC05                      14.85       0.00       0.00       0.00      14.64       0.00      14.64        2.28     0.85   0.986
  SC06                      13.01       0.00       0.00       0.00      12.86       0.00      12.86        4.19     0.79   0.989
  SC07                      17.00       0.00       0.00       0.00      16.62       0.00      16.62        0.79     0.20   0.977
  SC08                      15.19       0.00       0.00       0.00      14.99       0.00      14.99        4.20     1.32   0.987
  SC09                      13.01       0.00       0.00       0.00      12.90       0.00      12.90        0.89     0.22   0.991
  SC010                     14.85       0.00       0.00       0.00      14.60       0.00      14.60        1.72     0.59   0.983
  
  
  ******************
  Node Depth Summary
  ******************
  
  ---------------------------------------------------------------------------------
                                 Average  Maximum  Maximum  Time of Max    Reported
                                   Depth    Depth      HGL   Occurrence   Max Depth
  Node                 Type       Meters   Meters   Meters  days hr:min      Meters
  ---------------------------------------------------------------------------------
  J1                   JUNCTION     0.06     0.30    34.30     0  02:51        0.29
  J3                   JUNCTION     0.14     0.17    18.17     0  04:21        0.17
  CSO7                 JUNCTION     0.12     1.20    35.20     0  02:46        1.20
  J5                   JUNCTION     0.05     0.20    32.20     0  03:11        0.20
  CSO9                 JUNCTION     0.12     2.00    42.00     0  02:55        2.00
  J8                   JUNCTION     0.09     0.30    36.30     0  03:12        0.30
  CSO8                 JUNCTION     0.14     2.00    34.00     0  02:50        2.00
  J10                  JUNCTION     0.07     0.38    29.38     0  02:57        0.37
  J13                  JUNCTION     0.05     0.29    29.29     0  03:01        0.29
  J15                  JUNCTION     0.19     0.46    15.46     0  02:53        0.46
  J16                  JUNCTION     0.05     0.31    30.31     0  02:51        0.31
  CSO10                JUNCTION     0.10     1.00    31.00     0  02:31        1.00
  J12                  JUNCTION     0.38     0.98    26.98     0  12:19        0.98
  J4                   JUNCTION     0.11     1.58    34.58     0  02:50        0.74
  J6                   JUNCTION     0.07     0.12    25.12     0  04:08        0.12
  J2                   JUNCTION     0.07     0.08    25.08     0  03:53        0.08
  J19                  JUNCTION     0.16     0.17     8.17     0  02:53        0.17
  J9                   JUNCTION     0.11     0.16    29.16     0  04:05        0.16
  J14                  JUNCTION     0.17     0.19    20.19     0  12:41        0.19
  J17                  JUNCTION     0.08     0.15    20.15     0  03:53        0.15
  J7                   JUNCTION     0.07     0.23    39.23     0  03:19        0.23
  J11                  JUNCTION     0.07     0.30    31.30     0  03:28        0.30
  J18                  JUNCTION     0.04     0.16    29.16     0  03:14        0.16
  Out_to_WWTP          OUTFALL      0.16     0.17     6.17     0  16:58        0.17
  T5                   STORAGE      2.98     5.00    32.00     0  03:02        5.00
  T4                   STORAGE      1.07     4.78    31.78     0  04:07        4.78
  T6                   STORAGE      1.51     5.00    36.00     0  03:32        5.00
  T3                   STORAGE      3.58     4.98    26.98     0  12:15        4.98
  T2                   STORAGE      1.12     5.00    26.00     0  03:28        5.00
  T1                   STORAGE      4.18     5.00    15.00     0  02:52        5.00
  
  
  *******************
  Node Inflow Summary
  *******************
  
  -------------------------------------------------------------------------------------------------
                                  Maximum  Maximum                  Lateral       Total        Flow
                                  Lateral    Total  Time of Max      Inflow      Inflow     Balance
                                   Inflow   Inflow   Occurrence      Volume      Volume       Error
  Node                 Type           CMS      CMS  days hr:min    10^6 ltr    10^6 ltr     Percent
  -------------------------------------------------------------------------------------------------
  J1                   JUNCTION     0.855    0.855     0  02:51        3.38        3.38      -0.070
  J3                   JUNCTION     0.000    0.295     0  04:20           0          18       0.173
  CSO7                 JUNCTION     0.201    0.201     0  03:01        1.35        1.35       0.023
  J5                   JUNCTION     0.289    0.362     0  03:01        1.39        2.53      -0.029
  CSO9                 JUNCTION     0.217    0.217     0  03:06        1.27        1.27       0.000
  J8                   JUNCTION     0.796    0.922     0  03:06        6.02        7.23      -0.065
  CSO8                 JUNCTION     1.320    1.320     0  03:01        4.64        4.64      -0.018
  J10                  JUNCTION     1.360    1.793     0  02:56        3.46        7.35      -0.059
  J13                  JUNCTION     1.326    1.326     0  03:01        4.72        4.72      -0.214
  J15                  JUNCTION     0.000    2.075     0  02:51           0        29.8       0.239
  J16                  JUNCTION     1.858    1.858     0  02:51        5.91        5.91      -0.049
  CSO10                JUNCTION     0.593    0.593     0  02:51        1.99        1.99       0.011
  J12                  JUNCTION     0.000    1.568     0  02:57           0        14.4       0.023
  J4                   JUNCTION     0.000    0.085     0  02:47           0        1.14       0.144
  J6                   JUNCTION     0.000    0.078     0  04:07           0        2.53       0.044
  J2                   JUNCTION     0.000    0.039     0  03:02           0        2.44       0.143
  J19                  JUNCTION     0.000    0.271     0  02:52           0        20.3       0.049
  J9                   JUNCTION     0.000    0.175     0  03:32           0        7.01       0.018
  J14                  JUNCTION     0.000    0.189     0  12:15           0        13.1       0.051
  J17                  JUNCTION     0.000    0.140     0  03:28           0        4.41       0.104
  J7                   JUNCTION     0.000    0.127     0  03:19           0        1.21       0.086
  J11                  JUNCTION     0.000    0.486     0  03:27           0        3.89       0.157
  J18                  JUNCTION     0.000    0.202     0  03:14           0        1.46       0.056
  Out_to_WWTP          OUTFALL      0.000    0.271     0  02:53           0        20.3       0.000
  T5                   STORAGE      0.000    0.794     0  02:51           0        3.38       3.987
  T4                   STORAGE      0.000    0.343     0  03:12           0        2.53       0.046
  T6                   STORAGE      0.000    0.875     0  03:12           0        7.24       0.016
  T3                   STORAGE      0.000    1.445     0  03:03           0        14.4       3.418
  T2                   STORAGE      0.000    1.225     0  03:01           0        4.73       0.276
  T1                   STORAGE      0.000    1.831     0  02:53           0        29.7       1.535
  
  
  **********************
  Node Surcharge Summary
  **********************
  
  Surcharging occurs when water rises above the top of the highest conduit.
  ---------------------------------------------------------------------
                                               Max. Height   Min. Depth
                                   Hours       Above Crown    Below Rim
  Node                 Type      Surcharged         Meters       Meters
  ---------------------------------------------------------------------
  CSO7                 JUNCTION        1.07          0.945        0.000
  CSO9                 JUNCTION        0.60          1.682        0.000
  CSO8                 JUNCTION        0.78          1.547        0.000
  CSO10                JUNCTION        0.94          0.560        0.000
  J4                   JUNCTION        1.03          1.278        0.422
  
  
  *********************
  Node Flooding Summary
  *********************
  
  Flooding refers to all water that overflows a node, whether it ponds or not.
  --------------------------------------------------------------------------
                                                             Total   Maximum
                                 Maximum   Time of Max       Flood    Ponded
                        Hours       Rate    Occurrence      Volume     Depth
  Node                 Flooded       CMS   days hr:min    10^6 ltr    Meters
  --------------------------------------------------------------------------
  CSO7                    0.93     0.128      0  03:01       0.213     0.000
  CSO9                    0.40     0.089      0  03:06       0.057     0.000
  CSO8                    0.59     0.834      0  03:01       0.756     0.000
  CSO10                   0.84     0.390      0  02:51       0.526     0.000
  T5                      0.93     0.695      0  03:06       0.688     0.000
  T6                      0.55     0.284      0  03:32       0.220     0.000
  T2                      0.42     0.469      0  03:31       0.298     0.000
  T1                     13.59     1.560      0  02:53       8.605     0.000
  
  
  **********************
  Storage Volume Summary
  **********************
  
  --------------------------------------------------------------------------------------------------
                         Average     Avg  Evap Exfil       Maximum     Max    Time of Max    Maximum
                          Volume    Pcnt  Pcnt  Pcnt        Volume    Pcnt     Occurrence    Outflow
  Storage Unit           1000 m3    Full  Loss  Loss       1000 m3    Full    days hr:min        CMS
  --------------------------------------------------------------------------------------------------
  T5                       0.298      60     0     0         0.500     100       0  03:02      0.039
  T4                       0.107      21     0     0         0.478      96       0  04:07      0.078
  T6                       0.181      30     0     0         0.600     100       0  03:32      0.175
  T3                       1.861      72     0     0         2.590     100       0  12:15      0.193
  T2                       0.225      22     0     0         1.000     100       0  03:28      0.140
  T1                       0.586      84     0     0         0.700     100       0  02:52      0.271
  
  
  ***********************
  Outfall Loading Summary
  ***********************
  
  -----------------------------------------------------------
                         Flow       Avg       Max       Total
                         Freq      Flow      Flow      Volume
  Outfall Node           Pcnt       CMS       CMS    10^6 ltr
  -----------------------------------------------------------
  Out_to_WWTP           99.54     0.239     0.271      20.260
  -----------------------------------------------------------
  System                99.54     0.239     0.271      20.260
  
  
  ********************
  Link Flow Summary
  ********************
  
  -----------------------------------------------------------------------------
                                 Maximum  Time of Max   Maximum    Max/    Max/
                                  |Flow|   Occurrence   |Veloc|    Full    Full
  Link                 Type          CMS  days hr:min     m/sec    Flow   Depth
  -----------------------------------------------------------------------------
  C1                   CONDUIT     0.039     0  03:53      0.93    0.01    0.12
  C6                   CONDUIT     0.073     0  03:11      1.28    1.17    0.83
  C2                   CONDUIT     0.078     0  04:08      1.49    0.09    0.24
  C9                   CONDUIT     0.127     0  03:20      1.29    0.43    0.53
  C16                  CONDUIT     0.486     0  03:21      1.81    0.05    0.17
  C3                   CONDUIT     0.189     0  12:16      2.10    0.07    0.17
  C19                  CONDUIT     0.140     0  03:53      1.29    0.05    0.29
  C11                  CONDUIT     0.295     0  04:21      1.88    0.01    0.15
  C20                  CONDUIT     1.709     0  02:51      4.48    0.05    0.19
  C22                  CONDUIT     0.202     0  03:14      1.63    0.09    0.39
  C12                  CONDUIT     0.175     0  04:05      1.08    0.01    0.28
  C17                  CONDUIT     1.507     0  02:57      3.95    0.07    0.26
  C10                  CONDUIT     0.875     0  03:12      1.64    0.09    0.60
  C13                  CONDUIT     1.445     0  03:03      2.02    0.08    0.75
  C18                  CONDUIT     1.225     0  03:01      2.73    0.05    0.57
  C23                  CONDUIT     1.831     0  02:53      1.50    0.20    0.65
  C4                   CONDUIT     0.794     0  02:51      2.66    0.19    0.65
  C7                   CONDUIT     0.343     0  03:12      1.75    0.08    0.60
  C14                  CONDUIT     0.271     0  02:53      2.08    0.02    0.09
  C5                   CONDUIT     0.085     0  02:47      1.67    1.45    1.00
  C8                   CONDUIT     0.127     0  03:19      1.83    1.60    0.86
  C15                  CONDUIT     0.486     0  03:27      3.81    1.55    0.83
  C21                  CONDUIT     0.202     0  03:14      1.94    1.16    0.69
  V4                   ORIFICE     0.078     0  04:07                      1.00
  V5                   ORIFICE     0.039     0  03:02                      1.00
  V1                   ORIFICE     0.271     0  02:52                      1.00
  V6                   ORIFICE     0.175     0  03:32                      1.00
  V3                   ORIFICE     0.189     0  12:15                      1.00
  V2                   ORIFICE     0.140     0  03:28                      1.00
  
  
  ***************************
  Flow Classification Summary
  ***************************
  
  -------------------------------------------------------------------------------------
                      Adjusted    ---------- Fraction of Time in Flow Class ---------- 
                       /Actual         Up    Down  Sub   Sup   Up    Down  Norm  Inlet 
  Conduit               Length    Dry  Dry   Dry   Crit  Crit  Crit  Crit  Ltd   Ctrl  
  -------------------------------------------------------------------------------------
  C1                      1.00   0.00  0.00  0.00  0.96  0.04  0.00  0.00  0.98  0.00
  C6                      1.00   0.00  0.00  0.00  0.06  0.94  0.00  0.00  0.00  0.00
  C2                      1.00   0.00  0.00  0.00  0.60  0.40  0.00  0.00  0.98  0.00
  C9                      1.00   0.00  0.00  0.00  1.00  0.00  0.00  0.00  1.00  0.00
  C16                     1.00   0.00  0.00  0.00  0.61  0.39  0.00  0.00  0.42  0.00
  C3                      1.00   0.00  0.00  0.00  0.01  0.99  0.00  0.00  0.01  0.00
  C19                     1.00   0.00  0.00  0.00  0.79  0.21  0.00  0.00  0.99  0.00
  C11                     1.00   0.00  0.00  0.00  0.06  0.94  0.00  0.00  1.00  0.00
  C20                     1.00   0.00  0.00  0.00  0.91  0.09  0.00  0.00  0.99  0.00
  C22                     1.00   0.00  0.00  0.00  0.99  0.01  0.00  0.00  1.00  0.00
  C12                     1.00   0.00  0.00  0.00  0.75  0.25  0.00  0.00  0.97  0.00
  C17                     1.00   0.00  0.00  0.00  0.78  0.22  0.00  0.00  0.98  0.00
  C10                     1.00   0.00  0.00  0.00  0.93  0.07  0.00  0.00  0.99  0.00
  C13                     1.00   0.00  0.00  0.00  0.97  0.03  0.00  0.00  0.36  0.00
  C18                     1.00   0.00  0.00  0.00  0.76  0.24  0.00  0.00  0.99  0.00
  C23                     1.00   0.00  0.00  0.00  0.97  0.03  0.00  0.00  0.98  0.00
  C4                      1.00   0.00  0.00  0.00  0.95  0.05  0.00  0.00  0.99  0.00
  C7                      1.00   0.00  0.00  0.00  0.90  0.10  0.00  0.00  0.99  0.00
  C14                     1.00   0.00  0.00  0.00  0.00  1.00  0.00  0.00  0.25  0.00
  C5                      1.00   0.00  0.00  0.00  0.93  0.07  0.00  0.00  0.94  0.00
  C8                      1.00   0.00  0.00  0.00  0.12  0.88  0.00  0.00  0.01  0.00
  C15                     1.00   0.00  0.00  0.00  0.01  0.99  0.00  0.00  0.02  0.00
  C21                     1.00   0.00  0.00  0.00  0.00  1.00  0.00  0.00  0.00  0.00
  
  
  *************************
  Conduit Surcharge Summary
  *************************
  
  ----------------------------------------------------------------------------
                                                           Hours        Hours 
                         --------- Hours Full --------   Above Full   Capacity
  Conduit                Both Ends  Upstream  Dnstream   Normal Flow   Limited
  ----------------------------------------------------------------------------
  C6                          0.01      1.03      0.01      0.95         0.01
  C10                         0.01      0.01      9.79      0.01         0.01
  C13                         0.01      0.01     19.45      0.01         0.01
  C18                         0.01      0.01      4.71      0.01         0.01
  C23                         0.01      0.01     21.02      0.01         0.01
  C4                          0.01      0.01     21.02      0.01         0.01
  C7                          0.01      0.01      8.81      0.01         0.01
  C5                          1.03      1.07      1.12      1.06         1.01
  C8                          0.01      0.60      0.01      0.60         0.01
  C15                         0.01      0.78      0.01      0.80         0.01
  C21                         0.01      0.94      0.01      0.92         0.01
  

  Analysis begun on:  Tue Sep 21 01:30:35 2021
  Analysis ended on:  Tue Sep 21 01:30:35 2021
  Total elapsed time: < 1 sec