
  EPA STORM WATER MANAGEMENT MODEL - VERSION 5.1 (Build 5.3.0.dev0)
  --------------------------------------------------------------

  WARNING 09: time series interval greater than recording interval for Rain Gage RG1
  WARNING 09: time series interval greater than recording interval for Rain Gage RG2
  WARNING 09: time series interval greater than recording interval for Rain Gage RG3
  WARNING 09: time series interval greater than recording interval for Rain Gage RG4
  
  *********************************************************
  NOTE: The summary statistics displayed in this report are
  based on results found at every computational time step,  
  not just on results from each reporting time step.
  *********************************************************
  
  ****************
  Analysis Options
  ****************
  Flow Units ............... CMS
  Process Models:
    Rainfall/Runoff ........ YES
    RDII ................... NO
    Snowmelt ............... NO
    Groundwater ............ NO
    Flow Routing ........... YES
    Ponding Allowed ........ YES
    Water Quality .......... NO
  Infiltration Method ...... HORTON
  Flow Routing Method ...... DYNWAVE
  Surcharge Method ......... EXTRAN
  Starting Date ............ 08/28/2015 00:00:00
  Ending Date .............. 08/28/2015 23:40:00
  Antecedent Dry Days ...... 0.0
  Report Time Step ......... 00:01:00
  Wet Time Step ............ 00:01:00
  Dry Time Step ............ 00:01:00
  Routing Time Step ........ 5.00 sec
  Variable Time Step ....... YES
  Maximum Trials ........... 8
  Number of Threads ........ 1
  Head Tolerance ........... 0.001500 m
  
  
  **************************        Volume         Depth
  Runoff Quantity Continuity     hectare-m            mm
  **************************     ---------       -------
  Total Precipitation ......         3.976        22.066
  Evaporation Loss .........         0.000         0.000
  Infiltration Loss ........         0.000         0.000
  Surface Runoff ...........         3.720        20.643
  Final Storage ............         0.263         1.459
  Continuity Error (%) .....        -0.165
  
  
  **************************        Volume        Volume
  Flow Routing Continuity        hectare-m      10^6 ltr
  **************************     ---------     ---------
  Dry Weather Inflow .......         0.758         7.576
  Wet Weather Inflow .......         3.715        37.149
  Groundwater Inflow .......         0.000         0.000
  RDII Inflow ..............         0.000         0.000
  External Inflow ..........         0.000         0.000
  External Outflow .........         1.240        12.404
  Flooding Loss ............         2.010        20.104
  Evaporation Loss .........         0.000         0.000
  Exfiltration Loss ........         0.000         0.000
  Initial Stored Volume ....         0.000         0.000
  Final Stored Volume ......         0.909         9.094
  Continuity Error (%) .....         6.979
  
  
  *************************
  Highest Continuity Errors
  *************************
  Node T2 (15.36%)
  Node T5 (11.85%)
  Node T4 (10.83%)
  Node T6 (9.09%)
  Node T3 (8.22%)
  
  
  ***************************
  Time-Step Critical Elements
  ***************************
  None
  
  
  ********************************
  Highest Flow Instability Indexes
  ********************************
  Link C15 (2)
  Link C20 (2)
  Link C18 (1)
  Link C4 (1)
  Link C21 (1)
  
  
  *************************
  Routing Time Step Summary
  *************************
  Minimum Time Step           :     4.50 sec
  Average Time Step           :     5.00 sec
  Maximum Time Step           :     5.00 sec
  Percent in Steady State     :     0.00
  Average Iterations per Step :     2.00
  Percent Not Converging      :     0.00
  
  
  ***************************
  Subcatchment Runoff Summary
  ***************************
  
  ------------------------------------------------------------------------------------------------------------------------------
                            Total      Total      Total      Total     Imperv       Perv      Total       Total     Peak  Runoff
                           Precip      Runon       Evap      Infil     Runoff     Runoff     Runoff      Runoff   Runoff   Coeff
  Subcatchment                 mm         mm         mm         mm         mm         mm         mm    10^6 ltr      CMS
  ------------------------------------------------------------------------------------------------------------------------------
  SC01                      21.14       0.00       0.00       0.00      20.06       0.00      20.06        6.62     0.37   0.949
  SC02                      24.46       0.00       0.00       0.00      23.21       0.00      23.21        5.28     0.34   0.949
  SC03                      23.16       0.00       0.00       0.00      22.36       0.00      22.36        4.02     0.24   0.965
  SC04                      24.46       0.00       0.00       0.00      22.23       0.00      22.23        1.53     0.09   0.909
  SC05                      21.14       0.00       0.00       0.00      19.98       0.00      19.98        3.12     0.17   0.945
  SC06                      20.12       0.00       0.00       0.00      18.05       0.00      18.05        5.88     0.27   0.897
  SC07                      24.46       0.00       0.00       0.00      22.24       0.00      22.24        1.06     0.06   0.909
  SC08                      23.16       0.00       0.00       0.00      21.73       0.00      21.73        6.08     0.32   0.938
  SC09                      20.12       0.00       0.00       0.00      18.61       0.00      18.61        1.28     0.06   0.925
  SC010                     21.14       0.00       0.00       0.00      19.76       0.00      19.76        2.32     0.12   0.935
  
  
  ******************
  Node Depth Summary
  ******************
  
  ---------------------------------------------------------------------------------
                                 Average  Maximum  Maximum  Time of Max    Reported
                                   Depth    Depth      HGL   Occurrence   Max Depth
  Node                 Type       Meters   Meters   Meters  days hr:min      Meters
  ---------------------------------------------------------------------------------
  J1                   JUNCTION     0.07     0.14    34.14     0  17:37        0.14
  J3                   JUNCTION     0.10     0.17    18.17     0  23:40        0.17
  CSO7                 JUNCTION     0.09     0.22    34.22     0  23:16        0.22
  J5                   JUNCTION     0.06     0.13    32.13     0  23:17        0.13
  CSO9                 JUNCTION     0.10     0.23    40.23     0  17:36        0.23
  J8                   JUNCTION     0.10     0.19    36.19     0  17:42        0.19
  CSO8                 JUNCTION     0.13     0.40    32.40     0  23:11        0.39
  J10                  JUNCTION     0.09     0.21    29.21     0  23:12        0.21
  J13                  JUNCTION     0.06     0.15    29.15     0  23:16        0.15
  J15                  JUNCTION     0.16     0.31    15.31     0  23:08        0.31
  J16                  JUNCTION     0.06     0.15    30.15     0  17:36        0.15
  CSO10                JUNCTION     0.11     0.29    30.29     0  23:36        0.29
  J12                  JUNCTION     0.32     1.03    27.03     0  18:33        1.03
  J4                   JUNCTION     0.11     0.25    33.25     0  23:23        0.25
  J6                   JUNCTION     0.06     0.12    25.12     0  23:40        0.12
  J2                   JUNCTION     0.05     0.08    25.08     0  18:33        0.08
  J19                  JUNCTION     0.12     0.17     8.17     0  15:56        0.17
  J9                   JUNCTION     0.10     0.16    29.16     0  19:17        0.16
  J14                  JUNCTION     0.11     0.19    20.19     0  18:33        0.19
  J17                  JUNCTION     0.08     0.15    20.15     0  23:39        0.15
  J7                   JUNCTION     0.08     0.16    39.16     0  17:43        0.16
  J11                  JUNCTION     0.09     0.23    31.23     0  23:13        0.23
  J18                  JUNCTION     0.05     0.12    29.12     0  17:38        0.12
  Out_to_WWTP          OUTFALL      0.12     0.17     6.17     0  15:54        0.17
  T5                   STORAGE      1.90     5.00    32.00     0  17:45        5.00
  T4                   STORAGE      1.16     5.00    32.00     0  23:12        5.00
  T6                   STORAGE      1.68     5.00    36.00     0  18:01        5.00
  T3                   STORAGE      1.80     5.00    27.00     0  18:32        5.00
  T2                   STORAGE      1.12     5.00    26.00     0  23:07        5.00
  T1                   STORAGE      2.20     5.00    15.00     0  15:55        5.00
  
  
  *******************
  Node Inflow Summary
  *******************
  
  -------------------------------------------------------------------------------------------------
                                  Maximum  Maximum                  Lateral       Total        Flow
                                  Lateral    Total  Time of Max      Inflow      Inflow     Balance
                                   Inflow   Inflow   Occurrence      Volume      Volume       Error
  Node                 Type           CMS      CMS  days hr:min    10^6 ltr    10^6 ltr     Percent
  -------------------------------------------------------------------------------------------------
  J1                   JUNCTION     0.182    0.182     0  17:36        4.21        4.21       0.244
  J3                   JUNCTION     0.000    0.309     0  23:19           0        11.5       0.457
  CSO7                 JUNCTION     0.063    0.063     0  23:16        1.62        1.62       0.123
  J5                   JUNCTION     0.091    0.146     0  23:16        1.78        3.38       0.373
  CSO9                 JUNCTION     0.068    0.068     0  17:36        1.66        1.66       0.150
  J8                   JUNCTION     0.294    0.355     0  17:41         7.7        9.35       0.412
  CSO8                 JUNCTION     0.325    0.325     0  23:11        6.52        6.52       0.086
  J10                  JUNCTION     0.247    0.514     0  23:11        4.77        11.2       0.505
  J13                  JUNCTION     0.342    0.342     0  23:16        6.18        6.18       0.242
  J15                  JUNCTION     0.000    0.897     0  23:02           0        25.6       0.851
  J16                  JUNCTION     0.376    0.376     0  17:36        7.69        7.69       0.258
  CSO10                JUNCTION     0.125    0.125     0  23:36        2.59        2.59       0.171
  J12                  JUNCTION     0.000    0.665     0  23:12           0        17.6       4.969
  J4                   JUNCTION     0.000    0.061     0  23:16           0        1.62       0.882
  J6                   JUNCTION     0.000    0.080     0  23:12           0        2.41       0.359
  J2                   JUNCTION     0.000    0.039     0  17:45           0        1.67       0.355
  J19                  JUNCTION     0.000    0.271     0  15:55           0        12.4       0.102
  J9                   JUNCTION     0.000    0.175     0  18:01           0        6.45       0.486
  J14                  JUNCTION     0.000    0.190     0  18:32           0        7.44       0.134
  J17                  JUNCTION     0.000    0.140     0  23:07           0        3.96       0.411
  J7                   JUNCTION     0.000    0.065     0  17:37           0        1.66       0.857
  J11                  JUNCTION     0.000    0.318     0  23:11           0        6.52       0.789
  J18                  JUNCTION     0.000    0.119     0  23:37           0        2.58       0.606
  Out_to_WWTP          OUTFALL      0.000    0.271     0  15:56           0        12.4       0.000
  T5                   STORAGE      0.000    0.170     0  17:37           0         4.2      13.439
  T4                   STORAGE      0.000    0.141     0  23:17           0        3.37      12.143
  T6                   STORAGE      0.000    0.343     0  17:42           0        9.31      10.003
  T3                   STORAGE      0.000    0.688     0  23:13           0        16.8       8.961
  T2                   STORAGE      0.000    0.316     0  23:17           0        6.17      18.144
  T1                   STORAGE      0.000    0.865     0  23:08           0        25.4       3.389
  
  
  **********************
  Node Surcharge Summary
  **********************
  
  No nodes were surcharged.
  
  
  *********************
  Node Flooding Summary
  *********************
  
  Flooding refers to all water that overflows a node, whether it ponds or not.
  --------------------------------------------------------------------------
                                                             Total   Maximum
                                 Maximum   Time of Max       Flood    Ponded
                        Hours       Rate    Occurrence      Volume     Depth
  Node                 Flooded       CMS   days hr:min    10^6 ltr    Meters
  --------------------------------------------------------------------------
  T5                      5.92     0.122      0  23:02       1.525     0.000
  T4                      0.47     0.062      0  23:17       0.095     0.000
  T6                      5.64     0.144      0  18:02       1.408     0.000
  T3                      5.13     0.499      0  23:13       5.353     0.000
  T2                      0.55     0.176      0  23:17       0.265     0.000
  T1                      7.75     0.595      0  23:08      11.461     0.000
  
  
  **********************
  Storage Volume Summary
  **********************
  
  --------------------------------------------------------------------------------------------------
                         Average     Avg  Evap Exfil       Maximum     Max    Time of Max    Maximum
                          Volume    Pcnt  Pcnt  Pcnt        Volume    Pcnt     Occurrence    Outflow
  Storage Unit           1000 m3    Full  Loss  Loss       1000 m3    Full    days hr:min        CMS
  --------------------------------------------------------------------------------------------------
  T5                       0.190      38     0     0         0.500     100       0  17:45      0.039
  T4                       0.116      23     0     0         0.500     100       0  23:12      0.080
  T6                       0.201      34     0     0         0.600     100       0  18:01      0.175
  T3                       0.937      36     0     0         2.600     100       0  18:32      0.190
  T2                       0.223      22     0     0         1.000     100       0  23:07      0.140
  T1                       0.308      44     0     0         0.700     100       0  15:55      0.271
  
  
  ***********************
  Outfall Loading Summary
  ***********************
  
  -----------------------------------------------------------
                         Flow       Avg       Max       Total
                         Freq      Flow      Flow      Volume
  Outfall Node           Pcnt       CMS       CMS    10^6 ltr
  -----------------------------------------------------------
  Out_to_WWTP           99.43     0.146     0.271      12.404
  -----------------------------------------------------------
  System                99.43     0.146     0.271      12.404
  
  
  ********************
  Link Flow Summary
  ********************
  
  -----------------------------------------------------------------------------
                                 Maximum  Time of Max   Maximum    Max/    Max/
                                  |Flow|   Occurrence   |Veloc|    Full    Full
  Link                 Type          CMS  days hr:min     m/sec    Flow   Depth
  -----------------------------------------------------------------------------
  C1                   CONDUIT     0.039     0  18:33      0.74    0.01    0.13
  C6                   CONDUIT     0.057     0  23:24      1.25    0.91    0.62
  C2                   CONDUIT     0.080     0  23:39      1.48    0.09    0.25
  C9                   CONDUIT     0.062     0  17:43      1.03    0.21    0.35
  C16                  CONDUIT     0.294     0  23:13      1.52    0.03    0.11
  C3                   CONDUIT     0.190     0  23:12      2.03    0.07    0.18
  C19                  CONDUIT     0.140     0  23:39      1.10    0.05    0.23
  C11                  CONDUIT     0.309     0  23:40      1.57    0.02    0.12
  C20                  CONDUIT     0.349     0  17:37      1.85    0.01    0.11
  C22                  CONDUIT     0.113     0  17:38      1.08    0.05    0.27
  C12                  CONDUIT     0.175     0  19:17      1.04    0.01    0.30
  C17                  CONDUIT     0.490     0  23:12      2.23    0.02    0.31
  C10                  CONDUIT     0.343     0  17:42      0.94    0.04    0.56
  C13                  CONDUIT     0.688     0  23:13      0.85    0.04    0.76
  C18                  CONDUIT     0.316     0  23:17      1.01    0.01    0.54
  C23                  CONDUIT     0.865     0  23:08      0.86    0.10    0.60
  C4                   CONDUIT     0.170     0  17:37      1.13    0.04    0.57
  C7                   CONDUIT     0.141     0  23:17      0.90    0.03    0.56
  C14                  CONDUIT     0.271     0  15:56      2.08    0.02    0.09
  C5                   CONDUIT     0.061     0  23:16      1.26    1.04    0.91
  C8                   CONDUIT     0.065     0  17:37      1.30    0.82    0.61
  C15                  CONDUIT     0.318     0  23:11      2.71    1.01    0.69
  C21                  CONDUIT     0.119     0  23:37      1.71    0.68    0.47
  V4                   ORIFICE     0.080     0  23:12                      1.00
  V5                   ORIFICE     0.039     0  17:45                      1.00
  V1                   ORIFICE     0.271     0  15:55                      1.00
  V6                   ORIFICE     0.175     0  18:01                      1.00
  V3                   ORIFICE     0.190     0  18:32                      1.00
  V2                   ORIFICE     0.140     0  23:07                      1.00
  
  
  ***************************
  Flow Classification Summary
  ***************************
  
  -------------------------------------------------------------------------------------
                      Adjusted    ---------- Fraction of Time in Flow Class ---------- 
                       /Actual         Up    Down  Sub   Sup   Up    Down  Norm  Inlet 
  Conduit               Length    Dry  Dry   Dry   Crit  Crit  Crit  Crit  Ltd   Ctrl  
  -------------------------------------------------------------------------------------
  C1                      1.00   0.00  0.00  0.00  0.93  0.07  0.00  0.00  0.97  0.00
  C6                      1.00   0.00  0.00  0.00  0.01  0.99  0.00  0.00  0.00  0.00
  C2                      1.00   0.00  0.00  0.00  0.11  0.89  0.00  0.00  0.97  0.00
  C9                      1.00   0.00  0.00  0.00  1.00  0.00  0.00  0.00  1.00  0.00
  C16                     1.00   0.00  0.25  0.00  0.30  0.45  0.00  0.00  0.27  0.00
  C3                      1.00   0.00  0.00  0.00  0.04  0.96  0.00  0.00  0.07  0.00
  C19                     1.00   0.00  0.00  0.00  1.00  0.00  0.00  0.00  1.00  0.00
  C11                     1.00   0.00  0.00  0.00  0.03  0.97  0.00  0.00  1.00  0.00
  C20                     1.00   0.00  0.00  0.00  0.58  0.42  0.00  0.00  0.99  0.00
  C22                     1.00   0.00  0.00  0.00  1.00  0.00  0.00  0.00  1.00  0.00
  C12                     1.00   0.00  0.00  0.00  0.54  0.46  0.00  0.00  0.91  0.00
  C17                     1.00   0.00  0.00  0.00  0.50  0.50  0.00  0.00  0.99  0.00
  C10                     1.00   0.00  0.00  0.00  0.77  0.23  0.00  0.00  0.98  0.00
  C13                     1.00   0.00  0.00  0.00  0.76  0.24  0.00  0.00  0.66  0.00
  C18                     1.00   0.00  0.00  0.00  0.60  0.40  0.00  0.00  0.98  0.00
  C23                     1.00   0.00  0.00  0.00  0.80  0.20  0.00  0.00  0.96  0.00
  C4                      1.00   0.00  0.00  0.00  0.82  0.18  0.00  0.00  0.98  0.00
  C7                      1.00   0.00  0.00  0.00  0.74  0.26  0.00  0.00  0.83  0.00
  C14                     1.00   0.00  0.00  0.00  0.00  1.00  0.00  0.00  0.25  0.00
  C5                      1.00   0.00  0.00  0.00  0.95  0.05  0.00  0.00  0.99  0.00
  C8                      1.00   0.00  0.00  0.00  0.14  0.86  0.00  0.00  0.00  0.00
  C15                     1.00   0.25  0.00  0.00  0.00  0.75  0.00  0.00  0.00  0.00
  C21                     1.00   0.00  0.00  0.00  0.00  1.00  0.00  0.00  0.00  0.00
  
  
  *************************
  Conduit Surcharge Summary
  *************************
  
  ----------------------------------------------------------------------------
                                                           Hours        Hours 
                         --------- Hours Full --------   Above Full   Capacity
  Conduit                Both Ends  Upstream  Dnstream   Normal Flow   Limited
  ----------------------------------------------------------------------------
  C10                         0.01      0.01      8.13      0.01         0.01
  C13                         0.01      0.01      8.37      0.01         0.01
  C18                         0.01      0.01      5.84      0.01         0.01
  C23                         0.01      0.01     10.23      0.01         0.01
  C4                          0.01      0.01     10.74      0.01         0.01
  C7                          0.01      0.01      7.78      0.01         0.01
  C5                          0.01      0.01      0.01      0.11         0.01
  C15                         0.01      0.01      0.01      0.02         0.01
  

  Analysis begun on:  Tue Sep 21 01:42:06 2021
  Analysis ended on:  Tue Sep 21 01:42:07 2021
  Total elapsed time: 00:00:01