
  EPA STORM WATER MANAGEMENT MODEL - VERSION 5.1 (Build 5.3.0.dev0)
  --------------------------------------------------------------

  WARNING 09: time series interval greater than recording interval for Rain Gage RG1
  WARNING 09: time series interval greater than recording interval for Rain Gage RG2
  WARNING 09: time series interval greater than recording interval for Rain Gage RG3
  WARNING 09: time series interval greater than recording interval for Rain Gage RG4
  
  *********************************************************
  NOTE: The summary statistics displayed in this report are
  based on results found at every computational time step,  
  not just on results from each reporting time step.
  *********************************************************
  
  ****************
  Analysis Options
  ****************
  Flow Units ............... CMS
  Process Models:
    Rainfall/Runoff ........ YES
    RDII ................... NO
    Snowmelt ............... NO
    Groundwater ............ NO
    Flow Routing ........... YES
    Ponding Allowed ........ YES
    Water Quality .......... NO
  Infiltration Method ...... HORTON
  Flow Routing Method ...... DYNWAVE
  Surcharge Method ......... EXTRAN
  Starting Date ............ 08/28/2015 00:00:00
  Ending Date .............. 08/28/2015 23:40:00
  Antecedent Dry Days ...... 0.0
  Report Time Step ......... 00:01:00
  Wet Time Step ............ 00:01:00
  Dry Time Step ............ 00:01:00
  Routing Time Step ........ 5.00 sec
  Variable Time Step ....... YES
  Maximum Trials ........... 8
  Number of Threads ........ 1
  Head Tolerance ........... 0.001500 m
  
  
  **************************        Volume         Depth
  Runoff Quantity Continuity     hectare-m            mm
  **************************     ---------       -------
  Total Precipitation ......         1.869        10.372
  Evaporation Loss .........         0.000         0.000
  Infiltration Loss ........         0.000         0.000
  Surface Runoff ...........         1.849        10.259
  Final Storage ............         0.022         0.122
  Continuity Error (%) .....        -0.099
  
  
  **************************        Volume        Volume
  Flow Routing Continuity        hectare-m      10^6 ltr
  **************************     ---------     ---------
  Dry Weather Inflow .......         0.758         7.576
  Wet Weather Inflow .......         1.849        18.487
  Groundwater Inflow .......         0.000         0.000
  RDII Inflow ..............         0.000         0.000
  External Inflow ..........         0.000         0.000
  External Outflow .........         1.780        17.803
  Flooding Loss ............         0.397         3.965
  Evaporation Loss .........         0.000         0.000
  Exfiltration Loss ........         0.000         0.000
  Initial Stored Volume ....         0.000         0.000
  Final Stored Volume ......         0.359         3.594
  Continuity Error (%) .....         2.686
  
  
  *************************
  Highest Continuity Errors
  *************************
  Node T5 (8.67%)
  Node T3 (6.92%)
  Node T1 (2.80%)
  
  
  ***************************
  Time-Step Critical Elements
  ***************************
  None
  
  
  ********************************
  Highest Flow Instability Indexes
  ********************************
  All links are stable.
  
  
  *************************
  Routing Time Step Summary
  *************************
  Minimum Time Step           :     4.50 sec
  Average Time Step           :     5.00 sec
  Maximum Time Step           :     5.00 sec
  Percent in Steady State     :     0.00
  Average Iterations per Step :     2.02
  Percent Not Converging      :     0.00
  
  
  ***************************
  Subcatchment Runoff Summary
  ***************************
  
  ------------------------------------------------------------------------------------------------------------------------------
                            Total      Total      Total      Total     Imperv       Perv      Total       Total     Peak  Runoff
                           Precip      Runon       Evap      Infil     Runoff     Runoff     Runoff      Runoff   Runoff   Coeff
  Subcatchment                 mm         mm         mm         mm         mm         mm         mm    10^6 ltr      CMS
  ------------------------------------------------------------------------------------------------------------------------------
  SC01                      10.12       0.00       0.00       0.00      10.03       0.00      10.03        3.31     0.40   0.991
  SC02                       9.74       0.00       0.00       0.00       9.67       0.00       9.67        2.20     0.28   0.992
  SC03                       8.26       0.00       0.00       0.00       8.21       0.00       8.21        1.48     0.27   0.994
  SC04                       9.74       0.00       0.00       0.00       9.59       0.00       9.59        0.66     0.06   0.984
  SC05                      10.12       0.00       0.00       0.00      10.02       0.00      10.02        1.56     0.18   0.990
  SC06                      13.77       0.00       0.00       0.00      13.55       0.00      13.55        4.41     0.68   0.984
  SC07                       9.74       0.00       0.00       0.00       9.59       0.00       9.59        0.46     0.04   0.984
  SC08                       8.26       0.00       0.00       0.00       8.18       0.00       8.18        2.29     0.29   0.990
  SC09                      13.77       0.00       0.00       0.00      13.66       0.00      13.66        0.94     0.21   0.992
  SC010                     10.12       0.00       0.00       0.00      10.00       0.00      10.00        1.18     0.12   0.988
  
  
  ******************
  Node Depth Summary
  ******************
  
  ---------------------------------------------------------------------------------
                                 Average  Maximum  Maximum  Time of Max    Reported
                                   Depth    Depth      HGL   Occurrence   Max Depth
  Node                 Type       Meters   Meters   Meters  days hr:min      Meters
  ---------------------------------------------------------------------------------
  J1                   JUNCTION     0.06     0.14    34.14     0  10:07        0.14
  J3                   JUNCTION     0.12     0.16    18.16     0  13:08        0.16
  CSO7                 JUNCTION     0.07     0.18    34.18     0  10:46        0.18
  J5                   JUNCTION     0.05     0.11    32.11     0  10:52        0.11
  CSO9                 JUNCTION     0.11     2.00    42.00     0  18:05        2.00
  J8                   JUNCTION     0.09     0.28    36.28     0  18:12        0.28
  CSO8                 JUNCTION     0.08     0.37    32.37     0  10:01        0.36
  J10                  JUNCTION     0.07     0.21    29.21     0  10:02        0.21
  J13                  JUNCTION     0.05     0.14    29.14     0  10:02        0.14
  J15                  JUNCTION     0.17     0.29    15.29     0  12:09        0.29
  J16                  JUNCTION     0.05     0.15    30.15     0  10:07        0.15
  CSO10                JUNCTION     0.09     0.29    30.29     0  10:11        0.29
  J12                  JUNCTION     0.12     0.24    26.24     0  10:04        0.24
  J4                   JUNCTION     0.09     0.21    33.21     0  10:53        0.21
  J6                   JUNCTION     0.06     0.10    25.10     0  12:29        0.10
  J2                   JUNCTION     0.06     0.08    25.08     0  13:00        0.08
  J19                  JUNCTION     0.15     0.17     8.17     0  10:50        0.17
  J9                   JUNCTION     0.11     0.16    29.16     0  19:08        0.16
  J14                  JUNCTION     0.14     0.18    20.18     0  14:54        0.18
  J17                  JUNCTION     0.07     0.12    20.12     0  12:20        0.12
  J7                   JUNCTION     0.07     0.23    39.23     0  18:18        0.23
  J11                  JUNCTION     0.06     0.22    31.22     0  10:03        0.22
  J18                  JUNCTION     0.04     0.12    29.12     0  10:13        0.12
  Out_to_WWTP          OUTFALL      0.15     0.17     6.17     0  20:55        0.17
  T5                   STORAGE      2.41     5.00    32.00     0  12:16        5.00
  T4                   STORAGE      0.56     2.26    29.26     0  12:27        2.26
  T6                   STORAGE      1.66     4.69    35.69     0  12:27        4.69
  T3                   STORAGE      2.27     4.17    26.17     0  14:16        4.17
  T2                   STORAGE      0.51     2.02    23.02     0  12:19        2.02
  T1                   STORAGE      3.34     5.00    15.00     0  10:48        5.00
  
  
  *******************
  Node Inflow Summary
  *******************
  
  -------------------------------------------------------------------------------------------------
                                  Maximum  Maximum                  Lateral       Total        Flow
                                  Lateral    Total  Time of Max      Inflow      Inflow     Balance
                                   Inflow   Inflow   Occurrence      Volume      Volume       Error
  Node                 Type           CMS      CMS  days hr:min    10^6 ltr    10^6 ltr     Percent
  -------------------------------------------------------------------------------------------------
  J1                   JUNCTION     0.199    0.199     0  10:06        2.66        2.66      -0.067
  J3                   JUNCTION     0.000    0.262     0  13:06           0          14       0.264
  CSO7                 JUNCTION     0.049    0.049     0  10:46        1.02        1.02       0.012
  J5                   JUNCTION     0.061    0.103     0  10:51        0.91        1.93      -0.065
  CSO9                 JUNCTION     0.211    0.211     0  18:11        1.32        1.32      -0.034
  J8                   JUNCTION     0.706    0.811     0  18:11        6.24        7.53      -0.063
  CSO8                 JUNCTION     0.297    0.297     0  10:01        2.74        2.74      -0.007
  J10                  JUNCTION     0.280    0.504     0  10:01        2.23        4.96      -0.045
  J13                  JUNCTION     0.300    0.300     0  10:01        3.11        3.11      -0.336
  J15                  JUNCTION     0.000    0.758     0  12:07           0        22.9       0.321
  J16                  JUNCTION     0.415    0.415     0  10:06        4.39        4.39      -0.095
  CSO10                JUNCTION     0.124    0.124     0  10:11        1.45        1.45       0.001
  J12                  JUNCTION     0.000    0.546     0  10:02           0        12.4       0.079
  J4                   JUNCTION     0.000    0.048     0  10:46           0        1.02       0.126
  J6                   JUNCTION     0.000    0.053     0  12:27           0        1.93       0.015
  J2                   JUNCTION     0.000    0.039     0  12:16           0        2.14       0.198
  J19                  JUNCTION     0.000    0.271     0  10:49           0        17.8       0.064
  J9                   JUNCTION     0.000    0.169     0  12:27           0         7.4       0.233
  J14                  JUNCTION     0.000    0.173     0  14:16           0        9.97       0.084
  J17                  JUNCTION     0.000    0.089     0  12:19           0         3.1       0.031
  J7                   JUNCTION     0.000    0.127     0  18:18           0        1.29       0.101
  J11                  JUNCTION     0.000    0.293     0  10:01           0        2.74       0.056
  J18                  JUNCTION     0.000    0.119     0  10:11           0        1.45      -0.048
  Out_to_WWTP          OUTFALL      0.000    0.271     0  10:50           0        17.8       0.000
  T5                   STORAGE      0.000    0.185     0  10:07           0        2.66       9.499
  T4                   STORAGE      0.000    0.101     0  10:52           0        1.93       0.103
  T6                   STORAGE      0.000    0.763     0  18:12           0        7.54       0.988
  T3                   STORAGE      0.000    0.531     0  10:04           0        12.3       7.434
  T2                   STORAGE      0.000    0.279     0  10:02           0        3.12       0.360
  T1                   STORAGE      0.000    0.734     0  12:09           0        22.9       2.877
  
  
  **********************
  Node Surcharge Summary
  **********************
  
  Surcharging occurs when water rises above the top of the highest conduit.
  ---------------------------------------------------------------------
                                               Max. Height   Min. Depth
                                   Hours       Above Crown    Below Rim
  Node                 Type      Surcharged         Meters       Meters
  ---------------------------------------------------------------------
  CSO9                 JUNCTION        0.38          1.682        0.000
  
  
  *********************
  Node Flooding Summary
  *********************
  
  Flooding refers to all water that overflows a node, whether it ponds or not.
  --------------------------------------------------------------------------
                                                             Total   Maximum
                                 Maximum   Time of Max       Flood    Ponded
                        Hours       Rate    Occurrence      Volume     Depth
  Node                 Flooded       CMS   days hr:min    10^6 ltr    Meters
  --------------------------------------------------------------------------
  CSO9                    0.20     0.096      0  18:06       0.034     0.000
  T5                      0.74     0.075      0  12:16       0.064     0.000
  T1                      8.85     0.463      0  12:09       3.867     0.000
  
  
  **********************
  Storage Volume Summary
  **********************
  
  --------------------------------------------------------------------------------------------------
                         Average     Avg  Evap Exfil       Maximum     Max    Time of Max    Maximum
                          Volume    Pcnt  Pcnt  Pcnt        Volume    Pcnt     Occurrence    Outflow
  Storage Unit           1000 m3    Full  Loss  Loss       1000 m3    Full    days hr:min        CMS
  --------------------------------------------------------------------------------------------------
  T5                       0.241      48     0     0         0.500     100       0  12:16      0.039
  T4                       0.056      11     0     0         0.226      45       0  12:27      0.053
  T6                       0.200      33     0     0         0.563      94       0  12:27      0.169
  T3                       1.183      45     0     0         2.170      83       0  14:16      0.173
  T2                       0.102      10     0     0         0.403      40       0  12:19      0.089
  T1                       0.467      67     0     0         0.700     100       0  10:48      0.271
  
  
  ***********************
  Outfall Loading Summary
  ***********************
  
  -----------------------------------------------------------
                         Flow       Avg       Max       Total
                         Freq      Flow      Flow      Volume
  Outfall Node           Pcnt       CMS       CMS    10^6 ltr
  -----------------------------------------------------------
  Out_to_WWTP           99.52     0.210     0.271      17.803
  -----------------------------------------------------------
  System                99.52     0.210     0.271      17.803
  
  
  ********************
  Link Flow Summary
  ********************
  
  -----------------------------------------------------------------------------
                                 Maximum  Time of Max   Maximum    Max/    Max/
                                  |Flow|   Occurrence   |Veloc|    Full    Full
  Link                 Type          CMS  days hr:min     m/sec    Flow   Depth
  -----------------------------------------------------------------------------
  C1                   CONDUIT     0.039     0  13:00      0.88    0.01    0.12
  C6                   CONDUIT     0.045     0  10:53      1.22    0.72    0.52
  C2                   CONDUIT     0.053     0  12:29      1.20    0.06    0.22
  C9                   CONDUIT     0.126     0  18:18      1.31    0.43    0.50
  C16                  CONDUIT     0.268     0  10:03      1.45    0.03    0.11
  C3                   CONDUIT     0.173     0  14:17      2.01    0.07    0.17
  C19                  CONDUIT     0.089     0  12:20      0.96    0.03    0.20
  C11                  CONDUIT     0.262     0  13:08      1.83    0.01    0.11
  C20                  CONDUIT     0.383     0  10:07      2.49    0.01    0.11
  C22                  CONDUIT     0.114     0  10:13      1.20    0.05    0.25
  C12                  CONDUIT     0.169     0  12:29      1.49    0.01    0.10
  C17                  CONDUIT     0.481     0  10:02      2.51    0.02    0.11
  C10                  CONDUIT     0.763     0  18:12      1.32    0.08    0.59
  C13                  CONDUIT     0.531     0  10:04      1.88    0.03    0.56
  C18                  CONDUIT     0.279     0  10:02      1.83    0.01    0.52
  C23                  CONDUIT     0.734     0  12:09      1.65    0.08    0.60
  C4                   CONDUIT     0.185     0  10:07      1.71    0.04    0.57
  C7                   CONDUIT     0.101     0  10:52      1.35    0.02    0.55
  C14                  CONDUIT     0.271     0  10:50      2.08    0.02    0.09
  C5                   CONDUIT     0.048     0  10:46      1.23    0.82    0.74
  C8                   CONDUIT     0.127     0  18:18      2.03    1.60    0.86
  C15                  CONDUIT     0.293     0  10:01      2.72    0.93    0.64
  C21                  CONDUIT     0.119     0  10:11      1.71    0.68    0.47
  V4                   ORIFICE     0.053     0  12:27                      1.00
  V5                   ORIFICE     0.039     0  12:16                      1.00
  V1                   ORIFICE     0.271     0  10:49                      1.00
  V6                   ORIFICE     0.169     0  12:27                      1.00
  V3                   ORIFICE     0.173     0  14:16                      1.00
  V2                   ORIFICE     0.089     0  12:19                      1.00
  
  
  ***************************
  Flow Classification Summary
  ***************************
  
  -------------------------------------------------------------------------------------
                      Adjusted    ---------- Fraction of Time in Flow Class ---------- 
                       /Actual         Up    Down  Sub   Sup   Up    Down  Norm  Inlet 
  Conduit               Length    Dry  Dry   Dry   Crit  Crit  Crit  Crit  Ltd   Ctrl  
  -------------------------------------------------------------------------------------
  C1                      1.00   0.00  0.00  0.00  0.98  0.02  0.00  0.00  0.98  0.00
  C6                      1.00   0.00  0.00  0.00  0.01  0.99  0.00  0.00  0.00  0.00
  C2                      1.00   0.00  0.00  0.00  0.62  0.38  0.00  0.00  0.98  0.00
  C9                      1.00   0.00  0.00  0.00  1.00  0.00  0.00  0.00  1.00  0.00
  C16                     1.00   0.00  0.00  0.00  0.69  0.31  0.00  0.00  0.46  0.00
  C3                      1.00   0.00  0.00  0.00  0.01  0.99  0.00  0.00  0.01  0.00
  C19                     1.00   0.00  0.00  0.00  1.00  0.00  0.00  0.00  1.00  0.00
  C11                     1.00   0.00  0.00  0.00  0.08  0.92  0.00  0.00  1.00  0.00
  C20                     1.00   0.00  0.00  0.00  0.83  0.17  0.00  0.00  0.99  0.00
  C22                     1.00   0.00  0.00  0.00  0.97  0.03  0.00  0.00  1.00  0.00
  C12                     1.00   0.00  0.00  0.00  0.18  0.82  0.00  0.00  0.66  0.00
  C17                     1.00   0.00  0.00  0.00  0.58  0.42  0.00  0.00  0.98  0.00
  C10                     1.00   0.00  0.00  0.00  0.97  0.03  0.00  0.00  0.98  0.00
  C13                     1.00   0.00  0.00  0.00  0.97  0.03  0.00  0.00  0.91  0.00
  C18                     1.00   0.00  0.00  0.00  0.80  0.20  0.00  0.00  0.99  0.00
  C23                     1.00   0.00  0.00  0.00  0.98  0.02  0.00  0.00  0.98  0.00
  C4                      1.00   0.00  0.00  0.00  0.98  0.02  0.00  0.00  0.99  0.00
  C7                      1.00   0.00  0.00  0.00  0.94  0.06  0.00  0.00  0.98  0.00
  C14                     1.00   0.00  0.00  0.00  0.00  1.00  0.00  0.00  0.32  0.00
  C5                      1.00   0.00  0.00  0.00  0.91  0.09  0.00  0.00  0.98  0.00
  C8                      1.00   0.00  0.00  0.00  0.11  0.89  0.00  0.00  0.00  0.00
  C15                     1.00   0.00  0.00  0.00  0.00  1.00  0.00  0.00  0.01  0.00
  C21                     1.00   0.00  0.00  0.00  0.00  1.00  0.00  0.00  0.00  0.00
  
  
  *************************
  Conduit Surcharge Summary
  *************************
  
  ----------------------------------------------------------------------------
                                                           Hours        Hours 
                         --------- Hours Full --------   Above Full   Capacity
  Conduit                Both Ends  Upstream  Dnstream   Normal Flow   Limited
  ----------------------------------------------------------------------------
  C10                         0.01      0.01      9.84      0.01         0.01
  C13                         0.01      0.01     12.88      0.01         0.01
  C18                         0.01      0.01      0.28      0.01         0.01
  C23                         0.01      0.01     17.61      0.01         0.01
  C4                          0.01      0.01     13.71      0.01         0.01
  C7                          0.01      0.01      4.72      0.01         0.01
  C8                          0.01      0.38      0.01      0.39         0.01
  

  Analysis begun on:  Tue Sep 21 01:57:59 2021
  Analysis ended on:  Tue Sep 21 01:58:00 2021
  Total elapsed time: 00:00:01