
  EPA STORM WATER MANAGEMENT MODEL - VERSION 5.1 (Build 5.3.0.dev0)
  --------------------------------------------------------------

  WARNING 09: time series interval greater than recording interval for Rain Gage RG1
  WARNING 09: time series interval greater than recording interval for Rain Gage RG2
  WARNING 09: time series interval greater than recording interval for Rain Gage RG3
  WARNING 09: time series interval greater than recording interval for Rain Gage RG4
  
  *********************************************************
  NOTE: The summary statistics displayed in this report are
  based on results found at every computational time step,  
  not just on results from each reporting time step.
  *********************************************************
  
  ****************
  Analysis Options
  ****************
  Flow Units ............... CMS
  Process Models:
    Rainfall/Runoff ........ YES
    RDII ................... NO
    Snowmelt ............... NO
    Groundwater ............ NO
    Flow Routing ........... YES
    Ponding Allowed ........ YES
    Water Quality .......... NO
  Infiltration Method ...... HORTON
  Flow Routing Method ...... DYNWAVE
  Surcharge Method ......... EXTRAN
  Starting Date ............ 08/28/2015 00:00:00
  Ending Date .............. 08/28/2015 23:40:00
  Antecedent Dry Days ...... 0.0
  Report Time Step ......... 00:01:00
  Wet Time Step ............ 00:01:00
  Dry Time Step ............ 00:01:00
  Routing Time Step ........ 5.00 sec
  Variable Time Step ....... YES
  Maximum Trials ........... 8
  Number of Threads ........ 1
  Head Tolerance ........... 0.001500 m
  
  
  **************************        Volume         Depth
  Runoff Quantity Continuity     hectare-m            mm
  **************************     ---------       -------
  Total Precipitation ......         2.092        11.610
  Evaporation Loss .........         0.000         0.000
  Infiltration Loss ........         0.000         0.000
  Surface Runoff ...........         2.067        11.473
  Final Storage ............         0.026         0.144
  Continuity Error (%) .....        -0.059
  
  
  **************************        Volume        Volume
  Flow Routing Continuity        hectare-m      10^6 ltr
  **************************     ---------     ---------
  Dry Weather Inflow .......         0.758         7.576
  Wet Weather Inflow .......         2.067        20.673
  Groundwater Inflow .......         0.000         0.000
  RDII Inflow ..............         0.000         0.000
  External Inflow ..........         0.000         0.000
  External Outflow .........         1.977        19.768
  Flooding Loss ............         0.685         6.845
  Evaporation Loss .........         0.000         0.000
  Exfiltration Loss ........         0.000         0.000
  Initial Stored Volume ....         0.000         0.000
  Final Stored Volume ......         0.162         1.618
  Continuity Error (%) .....         0.061
  
  
  *************************
  Highest Continuity Errors
  *************************
  Node T5 (4.53%)
  Node T3 (1.84%)
  Node T1 (1.20%)
  
  
  ***************************
  Time-Step Critical Elements
  ***************************
  None
  
  
  ********************************
  Highest Flow Instability Indexes
  ********************************
  Link C15 (1)
  
  
  *************************
  Routing Time Step Summary
  *************************
  Minimum Time Step           :     4.50 sec
  Average Time Step           :     5.00 sec
  Maximum Time Step           :     5.00 sec
  Percent in Steady State     :     0.00
  Average Iterations per Step :     2.00
  Percent Not Converging      :     0.00
  
  
  ***************************
  Subcatchment Runoff Summary
  ***************************
  
  ------------------------------------------------------------------------------------------------------------------------------
                            Total      Total      Total      Total     Imperv       Perv      Total       Total     Peak  Runoff
                           Precip      Runon       Evap      Infil     Runoff     Runoff     Runoff      Runoff   Runoff   Coeff
  Subcatchment                 mm         mm         mm         mm         mm         mm         mm    10^6 ltr      CMS
  ------------------------------------------------------------------------------------------------------------------------------
  SC01                      11.65       0.00       0.00       0.00      11.53       0.00      11.53        3.80     0.35   0.989
  SC02                      11.11       0.00       0.00       0.00      10.99       0.00      10.99        2.50     0.24   0.989
  SC03                      11.45       0.00       0.00       0.00      11.37       0.00      11.37        2.05     0.22   0.993
  SC04                      11.11       0.00       0.00       0.00      10.91       0.00      10.91        0.75     0.06   0.982
  SC05                      11.65       0.00       0.00       0.00      11.52       0.00      11.52        1.80     0.16   0.989
  SC06                      12.17       0.00       0.00       0.00      12.00       0.00      12.00        3.90     0.32   0.986
  SC07                      11.11       0.00       0.00       0.00      10.91       0.00      10.91        0.52     0.04   0.982
  SC08                      11.45       0.00       0.00       0.00      11.32       0.00      11.32        3.17     0.28   0.988
  SC09                      12.17       0.00       0.00       0.00      12.03       0.00      12.03        0.83     0.07   0.989
  SC010                     11.65       0.00       0.00       0.00      11.49       0.00      11.49        1.35     0.12   0.987
  
  
  ******************
  Node Depth Summary
  ******************
  
  ---------------------------------------------------------------------------------
                                 Average  Maximum  Maximum  Time of Max    Reported
                                   Depth    Depth      HGL   Occurrence   Max Depth
  Node                 Type       Meters   Meters   Meters  days hr:min      Meters
  ---------------------------------------------------------------------------------
  J1                   JUNCTION     0.06     0.13    34.13     0  03:32        0.13
  J3                   JUNCTION     0.13     0.16    18.16     0  05:25        0.16
  CSO7                 JUNCTION     0.08     0.16    34.16     0  03:41        0.16
  J5                   JUNCTION     0.05     0.11    32.11     0  03:47        0.11
  CSO9                 JUNCTION     0.09     0.25    40.25     0  03:26        0.25
  J8                   JUNCTION     0.09     0.20    36.20     0  03:27        0.20
  CSO8                 JUNCTION     0.09     0.35    32.35     0  02:11        0.34
  J10                  JUNCTION     0.07     0.20    29.20     0  02:13        0.20
  J13                  JUNCTION     0.05     0.13    29.13     0  02:17        0.13
  J15                  JUNCTION     0.18     0.28    15.28     0  03:38        0.28
  J16                  JUNCTION     0.05     0.14    30.14     0  02:32        0.14
  CSO10                JUNCTION     0.09     0.28    30.28     0  02:31        0.28
  J12                  JUNCTION     0.38     1.00    27.00     0  07:30        1.00
  J4                   JUNCTION     0.09     0.19    33.19     0  03:48        0.19
  J6                   JUNCTION     0.06     0.10    25.10     0  05:14        0.10
  J2                   JUNCTION     0.07     0.08    25.08     0  07:19        0.08
  J19                  JUNCTION     0.16     0.17     8.17     0  02:47        0.17
  J9                   JUNCTION     0.10     0.16    29.16     0  04:44        0.16
  J14                  JUNCTION     0.16     0.19    20.19     0  08:59        0.19
  J17                  JUNCTION     0.07     0.13    20.13     0  05:09        0.13
  J7                   JUNCTION     0.07     0.16    39.16     0  03:29        0.16
  J11                  JUNCTION     0.07     0.22    31.22     0  02:13        0.22
  J18                  JUNCTION     0.04     0.12    29.12     0  03:33        0.12
  Out_to_WWTP          OUTFALL      0.15     0.17     6.17     0  14:57        0.17
  T5                   STORAGE      3.10     5.00    32.00     0  04:51        5.00
  T4                   STORAGE      0.69     2.39    29.39     0  05:12        2.39
  T6                   STORAGE      1.56     5.00    36.00     0  03:45        5.00
  T3                   STORAGE      3.23     5.00    27.00     0  06:56        5.00
  T2                   STORAGE      0.68     2.41    23.41     0  05:07        2.41
  T1                   STORAGE      3.99     5.00    15.00     0  02:46        5.00
  
  
  *******************
  Node Inflow Summary
  *******************
  
  -------------------------------------------------------------------------------------------------
                                  Maximum  Maximum                  Lateral       Total        Flow
                                  Lateral    Total  Time of Max      Inflow      Inflow     Balance
                                   Inflow   Inflow   Occurrence      Volume      Volume       Error
  Node                 Type           CMS      CMS  days hr:min    10^6 ltr    10^6 ltr     Percent
  -------------------------------------------------------------------------------------------------
  J1                   JUNCTION     0.166    0.166     0  02:31        2.89        2.89      -0.070
  J3                   JUNCTION     0.000    0.279     0  05:23           0        16.8       0.151
  CSO7                 JUNCTION     0.044    0.044     0  03:41        1.08        1.08       0.014
  J5                   JUNCTION     0.061    0.098     0  03:46           1        2.08      -0.014
  CSO9                 JUNCTION     0.075    0.075     0  03:26        1.21        1.21       0.010
  J8                   JUNCTION     0.324    0.385     0  03:26        5.74        6.95      -0.029
  CSO8                 JUNCTION     0.280    0.280     0  02:11        3.62        3.62      -0.001
  J10                  JUNCTION     0.224    0.444     0  02:11         2.8        6.41      -0.052
  J13                  JUNCTION     0.245    0.245     0  02:16        3.41        3.41      -0.137
  J15                  JUNCTION     0.000    0.725     0  03:32           0        26.7       0.193
  J16                  JUNCTION     0.355    0.355     0  02:31        4.88        4.88      -0.043
  CSO10                JUNCTION     0.117    0.117     0  02:31        1.62        1.62       0.012
  J12                  JUNCTION     0.000    0.553     0  03:37           0        13.2      -0.003
  J4                   JUNCTION     0.000    0.042     0  03:41           0        1.08       0.126
  J6                   JUNCTION     0.000    0.055     0  05:12           0        2.08       0.032
  J2                   JUNCTION     0.000    0.039     0  04:51           0        2.51       0.137
  J19                  JUNCTION     0.000    0.271     0  02:46           0        19.8       0.044
  J9                   JUNCTION     0.000    0.175     0  03:45           0        6.74       0.003
  J14                  JUNCTION     0.000    0.190     0  06:56           0        12.2       0.045
  J17                  JUNCTION     0.000    0.097     0  05:07           0         3.4       0.044
  J7                   JUNCTION     0.000    0.071     0  03:27           0        1.21       0.096
  J11                  JUNCTION     0.000    0.277     0  02:11           0        3.62       0.063
  J18                  JUNCTION     0.000    0.111     0  02:32           0        1.62      -0.010
  Out_to_WWTP          OUTFALL      0.000    0.271     0  02:48           0        19.8       0.000
  T5                   STORAGE      0.000    0.151     0  03:32           0        2.89       4.744
  T4                   STORAGE      0.000    0.095     0  03:47           0        2.08       0.063
  T6                   STORAGE      0.000    0.369     0  03:27           0        6.95       0.061
  T3                   STORAGE      0.000    0.545     0  03:39           0        13.2       1.871
  T2                   STORAGE      0.000    0.225     0  02:17           0        3.41       0.174
  T1                   STORAGE      0.000    0.692     0  03:38           0        26.6       1.219
  
  
  **********************
  Node Surcharge Summary
  **********************
  
  No nodes were surcharged.
  
  
  *********************
  Node Flooding Summary
  *********************
  
  Flooding refers to all water that overflows a node, whether it ponds or not.
  --------------------------------------------------------------------------
                                                             Total   Maximum
                                 Maximum   Time of Max       Flood    Ponded
                        Hours       Rate    Occurrence      Volume     Depth
  Node                 Flooded       CMS   days hr:min    10^6 ltr    Meters
  --------------------------------------------------------------------------
  T5                      1.35     0.056      0  06:37       0.131     0.000
  T6                      1.31     0.125      0  03:46       0.197     0.000
  T3                      1.33     0.111      0  06:56       0.219     0.000
  T1                     11.65     0.421      0  03:38       6.299     0.000
  
  
  **********************
  Storage Volume Summary
  **********************
  
  --------------------------------------------------------------------------------------------------
                         Average     Avg  Evap Exfil       Maximum     Max    Time of Max    Maximum
                          Volume    Pcnt  Pcnt  Pcnt        Volume    Pcnt     Occurrence    Outflow
  Storage Unit           1000 m3    Full  Loss  Loss       1000 m3    Full    days hr:min        CMS
  --------------------------------------------------------------------------------------------------
  T5                       0.310      62     0     0         0.500     100       0  04:51      0.039
  T4                       0.069      14     0     0         0.239      48       0  05:12      0.055
  T6                       0.188      31     0     0         0.600     100       0  03:45      0.175
  T3                       1.678      65     0     0         2.600     100       0  06:56      0.190
  T2                       0.135      14     0     0         0.482      48       0  05:07      0.097
  T1                       0.559      80     0     0         0.700     100       0  02:46      0.271
  
  
  ***********************
  Outfall Loading Summary
  ***********************
  
  -----------------------------------------------------------
                         Flow       Avg       Max       Total
                         Freq      Flow      Flow      Volume
  Outfall Node           Pcnt       CMS       CMS    10^6 ltr
  -----------------------------------------------------------
  Out_to_WWTP           99.48     0.233     0.271      19.768
  -----------------------------------------------------------
  System                99.48     0.233     0.271      19.768
  
  
  ********************
  Link Flow Summary
  ********************
  
  -----------------------------------------------------------------------------
                                 Maximum  Time of Max   Maximum    Max/    Max/
                                  |Flow|   Occurrence   |Veloc|    Full    Full
  Link                 Type          CMS  days hr:min     m/sec    Flow   Depth
  -----------------------------------------------------------------------------
  C1                   CONDUIT     0.039     0  07:19      0.75    0.01    0.12
  C6                   CONDUIT     0.039     0  03:48      1.17    0.63    0.48
  C2                   CONDUIT     0.055     0  05:14      1.18    0.06    0.22
  C9                   CONDUIT     0.067     0  03:29      1.09    0.23    0.36
  C16                  CONDUIT     0.249     0  02:13      1.44    0.02    0.10
  C3                   CONDUIT     0.190     0  06:59      2.08    0.07    0.18
  C19                  CONDUIT     0.097     0  05:09      1.03    0.03    0.20
  C11                  CONDUIT     0.279     0  05:25      1.86    0.01    0.11
  C20                  CONDUIT     0.322     0  02:32      2.41    0.01    0.10
  C22                  CONDUIT     0.103     0  03:33      1.13    0.05    0.25
  C12                  CONDUIT     0.175     0  04:37      1.17    0.01    0.29
  C17                  CONDUIT     0.421     0  02:13      2.30    0.02    0.28
  C10                  CONDUIT     0.369     0  03:27      1.35    0.04    0.57
  C13                  CONDUIT     0.545     0  03:39      2.01    0.03    0.75
  C18                  CONDUIT     0.225     0  02:17      1.53    0.01    0.53
  C23                  CONDUIT     0.692     0  03:38      1.45    0.08    0.59
  C4                   CONDUIT     0.151     0  03:32      1.31    0.04    0.57
  C7                   CONDUIT     0.095     0  03:47      1.18    0.02    0.55
  C14                  CONDUIT     0.271     0  02:48      2.08    0.02    0.09
  C5                   CONDUIT     0.042     0  03:41      1.17    0.72    0.67
  C8                   CONDUIT     0.071     0  03:27      1.39    0.90    0.64
  C15                  CONDUIT     0.277     0  02:11      2.68    0.88    0.61
  C21                  CONDUIT     0.111     0  02:32      1.69    0.63    0.45
  V4                   ORIFICE     0.055     0  05:12                      1.00
  V5                   ORIFICE     0.039     0  04:51                      1.00
  V1                   ORIFICE     0.271     0  02:46                      1.00
  V6                   ORIFICE     0.175     0  03:45                      1.00
  V3                   ORIFICE     0.190     0  06:56                      1.00
  V2                   ORIFICE     0.097     0  05:07                      1.00
  
  
  ***************************
  Flow Classification Summary
  ***************************
  
  -------------------------------------------------------------------------------------
                      Adjusted    ---------- Fraction of Time in Flow Class ---------- 
                       /Actual         Up    Down  Sub   Sup   Up    Down  Norm  Inlet 
  Conduit               Length    Dry  Dry   Dry   Crit  Crit  Crit  Crit  Ltd   Ctrl  
  -------------------------------------------------------------------------------------
  C1                      1.00   0.00  0.00  0.00  0.95  0.05  0.00  0.00  0.97  0.00
  C6                      1.00   0.00  0.00  0.00  0.01  0.99  0.00  0.00  0.00  0.00
  C2                      1.00   0.00  0.00  0.00  0.64  0.36  0.00  0.00  0.98  0.00
  C9                      1.00   0.00  0.00  0.00  1.00  0.00  0.00  0.00  1.00  0.00
  C16                     1.00   0.00  0.00  0.00  0.66  0.34  0.00  0.00  0.54  0.00
  C3                      1.00   0.00  0.00  0.00  0.04  0.96  0.00  0.00  0.04  0.00
  C19                     1.00   0.00  0.00  0.00  1.00  0.00  0.00  0.00  1.00  0.00
  C11                     1.00   0.00  0.00  0.00  0.11  0.89  0.00  0.00  1.00  0.00
  C20                     1.00   0.00  0.00  0.00  0.79  0.21  0.00  0.00  0.99  0.00
  C22                     1.00   0.00  0.00  0.00  0.98  0.02  0.00  0.00  1.00  0.00
  C12                     1.00   0.00  0.00  0.00  0.69  0.31  0.00  0.00  0.95  0.00
  C17                     1.00   0.00  0.00  0.00  0.76  0.24  0.00  0.00  0.98  0.00
  C10                     1.00   0.00  0.00  0.00  0.89  0.11  0.00  0.00  0.97  0.00
  C13                     1.00   0.00  0.00  0.00  0.94  0.06  0.00  0.00  0.50  0.00
  C18                     1.00   0.00  0.00  0.00  0.65  0.35  0.00  0.00  0.98  0.00
  C23                     1.00   0.00  0.00  0.00  0.94  0.06  0.00  0.00  0.97  0.00
  C4                      1.00   0.00  0.00  0.00  0.94  0.06  0.00  0.00  0.98  0.00
  C7                      1.00   0.00  0.00  0.00  0.87  0.13  0.00  0.00  0.95  0.00
  C14                     1.00   0.00  0.00  0.00  0.00  1.00  0.00  0.00  0.27  0.00
  C5                      1.00   0.00  0.00  0.00  0.93  0.07  0.00  0.00  0.98  0.00
  C8                      1.00   0.00  0.00  0.00  0.10  0.90  0.00  0.00  0.00  0.00
  C15                     1.00   0.00  0.00  0.00  0.02  0.97  0.00  0.00  0.03  0.00
  C21                     1.00   0.00  0.00  0.00  0.00  1.00  0.00  0.00  0.00  0.00
  
  
  *************************
  Conduit Surcharge Summary
  *************************
  
  ----------------------------------------------------------------------------
                                                           Hours        Hours 
                         --------- Hours Full --------   Above Full   Capacity
  Conduit                Both Ends  Upstream  Dnstream   Normal Flow   Limited
  ----------------------------------------------------------------------------
  C10                         0.01      0.01      8.63      0.01         0.01
  C13                         0.01      0.01     16.98      0.01         0.01
  C18                         0.01      0.01      2.12      0.01         0.01
  C23                         0.01      0.01     21.81      0.01         0.01
  C4                          0.01      0.01     21.74      0.01         0.01
  C7                          0.01      0.01      6.78      0.01         0.01
  

  Analysis begun on:  Tue Sep 21 02:02:20 2021
  Analysis ended on:  Tue Sep 21 02:02:21 2021
  Total elapsed time: 00:00:01