
  EPA STORM WATER MANAGEMENT MODEL - VERSION 5.1 (Build 5.3.0.dev0)
  --------------------------------------------------------------

  WARNING 09: time series interval greater than recording interval for Rain Gage RG1
  WARNING 09: time series interval greater than recording interval for Rain Gage RG2
  WARNING 09: time series interval greater than recording interval for Rain Gage RG3
  WARNING 09: time series interval greater than recording interval for Rain Gage RG4
  
  *********************************************************
  NOTE: The summary statistics displayed in this report are
  based on results found at every computational time step,  
  not just on results from each reporting time step.
  *********************************************************
  
  ****************
  Analysis Options
  ****************
  Flow Units ............... CMS
  Process Models:
    Rainfall/Runoff ........ YES
    RDII ................... NO
    Snowmelt ............... NO
    Groundwater ............ NO
    Flow Routing ........... YES
    Ponding Allowed ........ YES
    Water Quality .......... NO
  Infiltration Method ...... HORTON
  Flow Routing Method ...... DYNWAVE
  Surcharge Method ......... EXTRAN
  Starting Date ............ 08/28/2015 00:00:00
  Ending Date .............. 08/28/2015 23:40:00
  Antecedent Dry Days ...... 0.0
  Report Time Step ......... 00:01:00
  Wet Time Step ............ 00:01:00
  Dry Time Step ............ 00:01:00
  Routing Time Step ........ 5.00 sec
  Variable Time Step ....... YES
  Maximum Trials ........... 8
  Number of Threads ........ 1
  Head Tolerance ........... 0.001500 m
  
  
  **************************        Volume         Depth
  Runoff Quantity Continuity     hectare-m            mm
  **************************     ---------       -------
  Total Precipitation ......         2.575        14.287
  Evaporation Loss .........         0.000         0.000
  Infiltration Loss ........         0.000         0.000
  Surface Runoff ...........         2.554        14.174
  Final Storage ............         0.027         0.150
  Continuity Error (%) .....        -0.260
  
  
  **************************        Volume        Volume
  Flow Routing Continuity        hectare-m      10^6 ltr
  **************************     ---------     ---------
  Dry Weather Inflow .......         0.758         7.576
  Wet Weather Inflow .......         2.554        25.542
  Groundwater Inflow .......         0.000         0.000
  RDII Inflow ..............         0.000         0.000
  External Inflow ..........         0.000         0.000
  External Outflow .........         1.869        18.689
  Flooding Loss ............         0.910         9.100
  Evaporation Loss .........         0.000         0.000
  Exfiltration Loss ........         0.000         0.000
  Initial Stored Volume ....         0.000         0.000
  Final Stored Volume ......         0.422         4.221
  Continuity Error (%) .....         3.345
  
  
  *************************
  Highest Continuity Errors
  *************************
  Node T5 (7.79%)
  Node T3 (7.33%)
  Node T1 (2.94%)
  
  
  ***************************
  Time-Step Critical Elements
  ***************************
  None
  
  
  ********************************
  Highest Flow Instability Indexes
  ********************************
  Link C13 (1)
  
  
  *************************
  Routing Time Step Summary
  *************************
  Minimum Time Step           :     4.50 sec
  Average Time Step           :     5.00 sec
  Maximum Time Step           :     5.00 sec
  Percent in Steady State     :     0.00
  Average Iterations per Step :     2.13
  Percent Not Converging      :     0.64
  
  
  ***************************
  Subcatchment Runoff Summary
  ***************************
  
  ------------------------------------------------------------------------------------------------------------------------------
                            Total      Total      Total      Total     Imperv       Perv      Total       Total     Peak  Runoff
                           Precip      Runon       Evap      Infil     Runoff     Runoff     Runoff      Runoff   Runoff   Coeff
  Subcatchment                 mm         mm         mm         mm         mm         mm         mm    10^6 ltr      CMS
  ------------------------------------------------------------------------------------------------------------------------------
  SC01                      16.55       0.00       0.00       0.00      16.52       0.00      16.52        5.45     4.21   0.998
  SC02                      10.98       0.00       0.00       0.00      10.90       0.00      10.90        2.48     0.82   0.992
  SC03                      13.25       0.00       0.00       0.00      13.22       0.00      13.22        2.38     0.88   0.998
  SC04                      10.98       0.00       0.00       0.00      10.76       0.00      10.76        0.74     0.13   0.980
  SC05                      16.55       0.00       0.00       0.00      16.51       0.00      16.51        2.58     1.83   0.998
  SC06                      14.92       0.00       0.00       0.00      14.65       0.00      14.65        4.77     1.06   0.982
  SC07                      10.98       0.00       0.00       0.00      10.77       0.00      10.77        0.51     0.09   0.980
  SC08                      13.25       0.00       0.00       0.00      13.13       0.00      13.13        3.68     0.67   0.991
  SC09                      14.92       0.00       0.00       0.00      14.78       0.00      14.78        1.02     0.35   0.991
  SC010                     16.55       0.00       0.00       0.00      16.47       0.00      16.47        1.94     1.10   0.995
  
  
  ******************
  Node Depth Summary
  ******************
  
  ---------------------------------------------------------------------------------
                                 Average  Maximum  Maximum  Time of Max    Reported
                                   Depth    Depth      HGL   Occurrence   Max Depth
  Node                 Type       Meters   Meters   Meters  days hr:min      Meters
  ---------------------------------------------------------------------------------
  J1                   JUNCTION     0.06     0.44    34.44     0  10:01        0.43
  J3                   JUNCTION     0.13     0.16    18.16     0  11:43        0.16
  CSO7                 JUNCTION     0.10     1.20    35.20     0  10:06        1.20
  J5                   JUNCTION     0.05     0.14    32.14     0  10:12        0.14
  CSO9                 JUNCTION     0.13     2.00    42.00     0  10:10        2.00
  J8                   JUNCTION     0.09     0.33    36.33     0  10:16        0.33
  CSO8                 JUNCTION     0.14     2.00    34.00     0  10:05        2.00
  J10                  JUNCTION     0.08     0.30    29.30     0  10:11        0.30
  J13                  JUNCTION     0.05     0.23    29.23     0  10:06        0.23
  J15                  JUNCTION     0.18     0.58    15.58     0  10:04        0.58
  J16                  JUNCTION     0.06     0.51    30.51     0  10:01        0.48
  CSO10                JUNCTION     0.11     1.00    31.00     0  10:00        1.00
  J12                  JUNCTION     0.30     0.80    26.80     0  13:41        0.79
  J4                   JUNCTION     0.10     1.45    34.45     0  10:10        0.76
  J6                   JUNCTION     0.06     0.10    25.10     0  11:20        0.10
  J2                   JUNCTION     0.06     0.08    25.08     0  11:00        0.08
  J19                  JUNCTION     0.15     0.17     8.17     0  10:04        0.17
  J9                   JUNCTION     0.11     0.16    29.16     0  11:35        0.16
  J14                  JUNCTION     0.15     0.18    20.18     0  14:21        0.18
  J17                  JUNCTION     0.08     0.12    20.12     0  11:03        0.12
  J7                   JUNCTION     0.07     0.23    39.23     0  10:39        0.23
  J11                  JUNCTION     0.08     0.29    31.29     0  10:32        0.29
  J18                  JUNCTION     0.04     0.16    29.16     0  10:31        0.16
  Out_to_WWTP          OUTFALL      0.15     0.17     6.17     0  18:17        0.17
  T5                   STORAGE      2.81     5.00    32.00     0  10:07        5.00
  T4                   STORAGE      0.61     2.32    29.32     0  11:18        2.32
  T6                   STORAGE      1.44     5.00    36.00     0  10:36        5.00
  T3                   STORAGE      2.89     4.80    26.80     0  13:46        4.80
  T2                   STORAGE      0.56     2.18    23.18     0  11:02        2.18
  T1                   STORAGE      3.79     5.00    15.00     0  10:03        5.00
  
  
  *******************
  Node Inflow Summary
  *******************
  
  -------------------------------------------------------------------------------------------------
                                  Maximum  Maximum                  Lateral       Total        Flow
                                  Lateral    Total  Time of Max      Inflow      Inflow     Balance
                                   Inflow   Inflow   Occurrence      Volume      Volume       Error
  Node                 Type           CMS      CMS  days hr:min    10^6 ltr    10^6 ltr     Percent
  -------------------------------------------------------------------------------------------------
  J1                   JUNCTION     1.848    1.848     0  10:01        3.67        3.67      -0.031
  J3                   JUNCTION     0.000    0.275     0  11:33           0        15.5       0.262
  CSO7                 JUNCTION     0.097    0.097     0  10:06        1.08        1.08       0.019
  J5                   JUNCTION     0.130    0.182     0  10:11       0.991        2.06      -0.079
  CSO9                 JUNCTION     0.360    0.360     0  10:11         1.4         1.4      -0.039
  J8                   JUNCTION     1.089    1.137     0  10:11         6.6        7.88      -0.045
  CSO8                 JUNCTION     0.683    0.683     0  10:06        4.12        4.12      -0.045
  J10                  JUNCTION     0.894    1.024     0  10:11        3.13        7.19      -0.146
  J13                  JUNCTION     0.833    0.833     0  10:06        3.39        3.39      -0.443
  J15                  JUNCTION     0.000    4.448     0  10:01           0        27.1       0.335
  J16                  JUNCTION     4.233    4.233     0  10:01        6.53        6.53      -0.124
  CSO10                JUNCTION     1.105    1.105     0  10:01        2.21        2.21      -0.059
  J12                  JUNCTION     0.000    1.053     0  10:11           0        14.3       0.176
  J4                   JUNCTION     0.000    0.085     0  10:08           0        1.07       0.089
  J6                   JUNCTION     0.000    0.054     0  11:18           0        2.04       0.106
  J2                   JUNCTION     0.000    0.039     0  10:08           0        2.31       0.210
  J19                  JUNCTION     0.000    0.271     0  10:03           0        18.7       0.067
  J9                   JUNCTION     0.000    0.175     0  10:36           0        6.96       0.152
  J14                  JUNCTION     0.000    0.186     0  13:46           0        11.1       0.082
  J17                  JUNCTION     0.000    0.092     0  11:02           0        3.37       0.140
  J7                   JUNCTION     0.000    0.127     0  10:39           0        1.29       0.109
  J11                  JUNCTION     0.000    0.486     0  10:32           0        4.07       0.137
  J18                  JUNCTION     0.000    0.202     0  10:31           0        1.76      -0.023
  Out_to_WWTP          OUTFALL      0.000    0.271     0  10:04           0        18.7       0.000
  T5                   STORAGE      0.000    1.680     0  10:01           0        3.67       8.449
  T4                   STORAGE      0.000    0.177     0  10:12           0        2.06       0.338
  T6                   STORAGE      0.000    1.042     0  10:16           0        7.89       0.514
  T3                   STORAGE      0.000    0.965     0  10:14           0        14.3       7.910
  T2                   STORAGE      0.000    0.752     0  10:06           0         3.4       0.586
  T1                   STORAGE      0.000    2.648     0  10:05           0          27       3.026
  
  
  **********************
  Node Surcharge Summary
  **********************
  
  Surcharging occurs when water rises above the top of the highest conduit.
  ---------------------------------------------------------------------
                                               Max. Height   Min. Depth
                                   Hours       Above Crown    Below Rim
  Node                 Type      Surcharged         Meters       Meters
  ---------------------------------------------------------------------
  CSO7                 JUNCTION        0.59          0.945        0.000
  CSO9                 JUNCTION        0.74          1.682        0.000
  CSO8                 JUNCTION        0.87          1.547        0.000
  CSO10                JUNCTION        0.57          0.560        0.000
  J4                   JUNCTION        0.52          1.147        0.553
  
  
  *********************
  Node Flooding Summary
  *********************
  
  Flooding refers to all water that overflows a node, whether it ponds or not.
  --------------------------------------------------------------------------
                                                             Total   Maximum
                                 Maximum   Time of Max       Flood    Ponded
                        Hours       Rate    Occurrence      Volume     Depth
  Node                 Flooded       CMS   days hr:min    10^6 ltr    Meters
  --------------------------------------------------------------------------
  CSO7                    0.34     0.036      0  10:06       0.007     0.000
  CSO9                    0.50     0.243      0  10:11       0.116     0.000
  CSO8                    0.25     0.252      0  10:06       0.058     0.000
  CSO10                   0.52     0.906      0  10:01       0.445     0.000
  T5                      1.34     0.878      0  10:07       0.777     0.000
  T6                      0.98     0.633      0  10:37       0.847     0.000
  T1                     10.98     2.378      0  10:05       6.850     0.000
  
  
  **********************
  Storage Volume Summary
  **********************
  
  --------------------------------------------------------------------------------------------------
                         Average     Avg  Evap Exfil       Maximum     Max    Time of Max    Maximum
                          Volume    Pcnt  Pcnt  Pcnt        Volume    Pcnt     Occurrence    Outflow
  Storage Unit           1000 m3    Full  Loss  Loss       1000 m3    Full    days hr:min        CMS
  --------------------------------------------------------------------------------------------------
  T5                       0.281      56     0     0         0.500     100       0  10:07      0.039
  T4                       0.061      12     0     0         0.232      46       0  11:18      0.054
  T6                       0.173      29     0     0         0.600     100       0  10:36      0.175
  T3                       1.505      58     0     0         2.495      96       0  13:46      0.272
  T2                       0.112      11     0     0         0.436      44       0  11:02      0.092
  T1                       0.530      76     0     0         0.700     100       0  10:03      0.271
  
  
  ***********************
  Outfall Loading Summary
  ***********************
  
  -----------------------------------------------------------
                         Flow       Avg       Max       Total
                         Freq      Flow      Flow      Volume
  Outfall Node           Pcnt       CMS       CMS    10^6 ltr
  -----------------------------------------------------------
  Out_to_WWTP           99.43     0.221     0.271      18.689
  -----------------------------------------------------------
  System                99.43     0.221     0.271      18.689
  
  
  ********************
  Link Flow Summary
  ********************
  
  -----------------------------------------------------------------------------
                                 Maximum  Time of Max   Maximum    Max/    Max/
                                  |Flow|   Occurrence   |Veloc|    Full    Full
  Link                 Type          CMS  days hr:min     m/sec    Flow   Depth
  -----------------------------------------------------------------------------
  C1                   CONDUIT     0.039     0  11:00      0.88    0.01    0.12
  C6                   CONDUIT     0.071     0  10:12      1.28    1.12    0.74
  C2                   CONDUIT     0.054     0  11:20      1.18    0.06    0.22
  C9                   CONDUIT     0.127     0  10:39      1.26    0.43    0.55
  C16                  CONDUIT     0.476     0  10:14      1.76    0.05    0.15
  C3                   CONDUIT     0.186     0  13:46      2.08    0.07    0.17
  C19                  CONDUIT     0.092     0  11:03      0.99    0.03    0.33
  C11                  CONDUIT     0.275     0  11:43      1.87    0.01    0.18
  C20                  CONDUIT     4.088     0  10:01      7.54    0.13    0.24
  C22                  CONDUIT     0.202     0  10:31      1.44    0.09    0.46
  C12                  CONDUIT     0.175     0  11:34      1.12    0.01    0.24
  C17                  CONDUIT     0.977     0  10:11      3.52    0.05    0.22
  C10                  CONDUIT     1.042     0  10:16      1.08    0.11    0.61
  C13                  CONDUIT     0.965     0  10:14      1.08    0.06    0.70
  C18                  CONDUIT     0.752     0  10:06      1.99    0.03    0.53
  C23                  CONDUIT     2.648     0  10:05      2.03    0.29    0.69
  C4                   CONDUIT     1.680     0  10:01      2.77    0.41    0.72
  C7                   CONDUIT     0.177     0  10:12      0.97    0.04    0.57
  C14                  CONDUIT     0.271     0  10:04      2.08    0.02    0.09
  C5                   CONDUIT     0.085     0  10:08      1.71    1.46    1.00
  C8                   CONDUIT     0.127     0  10:39      1.94    1.60    0.86
  C15                  CONDUIT     0.486     0  10:32      3.89    1.54    0.82
  C21                  CONDUIT     0.202     0  10:31      1.89    1.16    0.69
  V4                   ORIFICE     0.054     0  11:18                      1.00
  V5                   ORIFICE     0.039     0  10:08                      1.00
  V1                   ORIFICE     0.271     0  10:03                      1.00
  V6                   ORIFICE     0.175     0  10:36                      1.00
  V3                   ORIFICE     0.186     0  13:46                      1.00
  V2                   ORIFICE     0.092     0  11:02                      1.00
  
  
  ***************************
  Flow Classification Summary
  ***************************
  
  -------------------------------------------------------------------------------------
                      Adjusted    ---------- Fraction of Time in Flow Class ---------- 
                       /Actual         Up    Down  Sub   Sup   Up    Down  Norm  Inlet 
  Conduit               Length    Dry  Dry   Dry   Crit  Crit  Crit  Crit  Ltd   Ctrl  
  -------------------------------------------------------------------------------------
  C1                      1.00   0.00  0.00  0.00  0.93  0.06  0.00  0.00  0.97  0.00
  C6                      1.00   0.00  0.00  0.00  0.04  0.96  0.00  0.00  0.00  0.00
  C2                      1.00   0.00  0.00  0.00  0.67  0.33  0.00  0.00  0.97  0.00
  C9                      1.00   0.00  0.00  0.00  1.00  0.00  0.00  0.00  1.00  0.00
  C16                     1.00   0.00  0.01  0.00  0.40  0.59  0.00  0.00  0.18  0.00
  C3                      1.00   0.00  0.00  0.00  0.03  0.97  0.00  0.00  0.04  0.00
  C19                     1.00   0.00  0.00  0.00  1.00  0.00  0.00  0.00  1.00  0.00
  C11                     1.00   0.00  0.00  0.00  0.10  0.90  0.00  0.00  1.00  0.00
  C20                     1.00   0.00  0.00  0.00  0.74  0.26  0.00  0.00  0.99  0.00
  C22                     1.00   0.00  0.00  0.00  0.98  0.02  0.00  0.00  1.00  0.00
  C12                     1.00   0.00  0.00  0.00  0.74  0.26  0.00  0.00  0.96  0.00
  C17                     1.00   0.00  0.00  0.00  0.58  0.42  0.00  0.00  0.98  0.00
  C10                     1.00   0.00  0.00  0.00  0.87  0.13  0.00  0.00  0.97  0.00
  C13                     1.00   0.00  0.00  0.00  0.92  0.08  0.00  0.00  0.47  0.00
  C18                     1.00   0.00  0.00  0.00  0.86  0.14  0.00  0.00  0.97  0.00
  C23                     1.00   0.00  0.00  0.00  0.92  0.08  0.00  0.00  0.96  0.00
  C4                      1.00   0.00  0.00  0.00  0.94  0.06  0.00  0.00  0.98  0.00
  C7                      1.00   0.00  0.00  0.00  0.85  0.15  0.00  0.00  0.92  0.00
  C14                     1.00   0.00  0.00  0.00  0.00  1.00  0.00  0.00  0.09  0.00
  C5                      1.00   0.00  0.00  0.00  0.90  0.10  0.00  0.00  0.96  0.00
  C8                      1.00   0.00  0.00  0.00  0.12  0.88  0.00  0.00  0.00  0.00
  C15                     1.00   0.01  0.00  0.00  0.00  0.99  0.00  0.00  0.01  0.00
  C21                     1.00   0.00  0.00  0.00  0.00  1.00  0.00  0.00  0.00  0.00
  
  
  *************************
  Conduit Surcharge Summary
  *************************
  
  ----------------------------------------------------------------------------
                                                           Hours        Hours 
                         --------- Hours Full --------   Above Full   Capacity
  Conduit                Both Ends  Upstream  Dnstream   Normal Flow   Limited
  ----------------------------------------------------------------------------
  C6                          0.01      0.52      0.01      0.44         0.01
  C10                         0.01      0.01      6.58      0.01         0.01
  C13                         0.01      0.01     13.47      0.01         0.01
  C18                         0.01      0.01      0.92      0.01         0.01
  C23                         0.01      0.01     19.29      0.01         0.01
  C4                          0.01      0.01     19.18      0.01         0.01
  C7                          0.01      0.01      4.19      0.01         0.01
  C5                          0.54      0.59      0.66      0.57         0.50
  C8                          0.01      0.74      0.01      0.75         0.01
  C15                         0.01      0.87      0.01      0.89         0.01
  C21                         0.01      0.57      0.01      0.56         0.01
  

  Analysis begun on:  Mon Sep 20 23:03:18 2021
  Analysis ended on:  Mon Sep 20 23:03:18 2021
  Total elapsed time: < 1 sec