
  EPA STORM WATER MANAGEMENT MODEL - VERSION 5.1 (Build 5.3.0.dev0)
  --------------------------------------------------------------

  WARNING 09: time series interval greater than recording interval for Rain Gage RG1
  WARNING 09: time series interval greater than recording interval for Rain Gage RG2
  WARNING 09: time series interval greater than recording interval for Rain Gage RG3
  WARNING 09: time series interval greater than recording interval for Rain Gage RG4
  
  *********************************************************
  NOTE: The summary statistics displayed in this report are
  based on results found at every computational time step,  
  not just on results from each reporting time step.
  *********************************************************
  
  ****************
  Analysis Options
  ****************
  Flow Units ............... CMS
  Process Models:
    Rainfall/Runoff ........ YES
    RDII ................... NO
    Snowmelt ............... NO
    Groundwater ............ NO
    Flow Routing ........... YES
    Ponding Allowed ........ YES
    Water Quality .......... NO
  Infiltration Method ...... HORTON
  Flow Routing Method ...... DYNWAVE
  Surcharge Method ......... EXTRAN
  Starting Date ............ 08/28/2015 00:00:00
  Ending Date .............. 08/28/2015 23:40:00
  Antecedent Dry Days ...... 0.0
  Report Time Step ......... 00:01:00
  Wet Time Step ............ 00:01:00
  Dry Time Step ............ 00:01:00
  Routing Time Step ........ 5.00 sec
  Variable Time Step ....... YES
  Maximum Trials ........... 8
  Number of Threads ........ 1
  Head Tolerance ........... 0.001500 m
  
  
  **************************        Volume         Depth
  Runoff Quantity Continuity     hectare-m            mm
  **************************     ---------       -------
  Total Precipitation ......         3.150        17.479
  Evaporation Loss .........         0.000         0.000
  Infiltration Loss ........         0.000         0.000
  Surface Runoff ...........         3.102        17.212
  Final Storage ............         0.050         0.278
  Continuity Error (%) .....        -0.065
  
  
  **************************        Volume        Volume
  Flow Routing Continuity        hectare-m      10^6 ltr
  **************************     ---------     ---------
  Dry Weather Inflow .......         0.758         7.576
  Wet Weather Inflow .......         3.101        31.015
  Groundwater Inflow .......         0.000         0.000
  RDII Inflow ..............         0.000         0.000
  External Inflow ..........         0.000         0.000
  External Outflow .........         1.801        18.005
  Flooding Loss ............         1.354        13.539
  Evaporation Loss .........         0.000         0.000
  Exfiltration Loss ........         0.000         0.000
  Initial Stored Volume ....         0.000         0.000
  Final Stored Volume ......         0.560         5.604
  Continuity Error (%) .....         3.739
  
  
  *************************
  Highest Continuity Errors
  *************************
  Node T5 (8.57%)
  Node T3 (7.83%)
  Node J12 (3.31%)
  Node T1 (2.72%)
  Node T6 (2.08%)
  
  
  ***************************
  Time-Step Critical Elements
  ***************************
  None
  
  
  ********************************
  Highest Flow Instability Indexes
  ********************************
  Link C15 (2)
  
  
  *************************
  Routing Time Step Summary
  *************************
  Minimum Time Step           :     0.65 sec
  Average Time Step           :     5.00 sec
  Maximum Time Step           :     5.00 sec
  Percent in Steady State     :     0.00
  Average Iterations per Step :     2.01
  Percent Not Converging      :     0.05
  
  
  ***************************
  Subcatchment Runoff Summary
  ***************************
  
  ------------------------------------------------------------------------------------------------------------------------------
                            Total      Total      Total      Total     Imperv       Perv      Total       Total     Peak  Runoff
                           Precip      Runon       Evap      Infil     Runoff     Runoff     Runoff      Runoff   Runoff   Coeff
  Subcatchment                 mm         mm         mm         mm         mm         mm         mm    10^6 ltr      CMS
  ------------------------------------------------------------------------------------------------------------------------------
  SC01                      16.98       0.00       0.00       0.00      16.83       0.00      16.83        5.55     0.39   0.991
  SC02                      18.46       0.00       0.00       0.00      18.32       0.00      18.32        4.17     0.33   0.992
  SC03                      18.85       0.00       0.00       0.00      18.72       0.00      18.72        3.37     0.24   0.993
  SC04                      18.46       0.00       0.00       0.00      18.18       0.00      18.18        1.25     0.08   0.985
  SC05                      16.98       0.00       0.00       0.00      16.82       0.00      16.82        2.62     0.18   0.990
  SC06                      15.79       0.00       0.00       0.00      15.22       0.00      15.22        4.95     0.25   0.964
  SC07                      18.46       0.00       0.00       0.00      18.18       0.00      18.18        0.86     0.06   0.985
  SC08                      18.85       0.00       0.00       0.00      18.56       0.00      18.56        5.20     0.26   0.985
  SC09                      15.79       0.00       0.00       0.00      15.42       0.00      15.42        1.06     0.06   0.976
  SC010                     16.98       0.00       0.00       0.00      16.78       0.00      16.78        1.97     0.13   0.988
  
  
  ******************
  Node Depth Summary
  ******************
  
  ---------------------------------------------------------------------------------
                                 Average  Maximum  Maximum  Time of Max    Reported
                                   Depth    Depth      HGL   Occurrence   Max Depth
  Node                 Type       Meters   Meters   Meters  days hr:min      Meters
  ---------------------------------------------------------------------------------
  J1                   JUNCTION     0.06     0.14    34.14     0  09:56        0.14
  J3                   JUNCTION     0.13     0.17    18.17     0  12:47        0.17
  CSO7                 JUNCTION     0.09     0.81    34.81     0  09:46        0.54
  J5                   JUNCTION     0.06     0.13    32.13     0  09:52        0.13
  CSO9                 JUNCTION     0.10     0.24    40.24     0  12:17        0.24
  J8                   JUNCTION     0.10     0.19    36.19     0  12:22        0.19
  CSO8                 JUNCTION     0.13     0.34    32.34     0  12:21        0.33
  J10                  JUNCTION     0.09     0.20    29.20     0  12:23        0.20
  J13                  JUNCTION     0.06     0.15    29.15     0  09:41        0.15
  J15                  JUNCTION     0.19     0.31    15.31     0  09:59        0.31
  J16                  JUNCTION     0.06     0.15    30.15     0  09:56        0.15
  CSO10                JUNCTION     0.11     0.31    30.31     0  09:56        0.31
  J12                  JUNCTION     0.57     1.01    27.01     0  12:08        1.01
  J4                   JUNCTION     0.11     0.28    33.28     0  09:53        0.28
  J6                   JUNCTION     0.07     0.12    25.12     0  12:45        0.12
  J2                   JUNCTION     0.06     0.08    25.08     0  10:28        0.08
  J19                  JUNCTION     0.14     0.17     8.17     0  08:08        0.17
  J9                   JUNCTION     0.11     0.16    29.16     0  13:02        0.16
  J14                  JUNCTION     0.15     0.19    20.19     0  20:55        0.19
  J17                  JUNCTION     0.09     0.14    20.14     0  12:39        0.14
  J7                   JUNCTION     0.07     0.16    39.16     0  12:23        0.16
  J11                  JUNCTION     0.10     0.22    31.22     0  12:23        0.22
  J18                  JUNCTION     0.05     0.13    29.13     0  09:58        0.13
  Out_to_WWTP          OUTFALL      0.14     0.17     6.17     0  23:39        0.17
  T5                   STORAGE      3.10     5.00    32.00     0  09:40        5.00
  T4                   STORAGE      1.33     4.21    31.21     0  12:44        4.21
  T6                   STORAGE      1.85     5.00    36.00     0  12:21        5.00
  T3                   STORAGE      3.21     5.00    27.00     0  11:38        5.00
  T2                   STORAGE      1.28     3.94    24.94     0  12:37        3.94
  T1                   STORAGE      3.70     5.00    15.00     0  08:07        5.00
  
  
  *******************
  Node Inflow Summary
  *******************
  
  -------------------------------------------------------------------------------------------------
                                  Maximum  Maximum                  Lateral       Total        Flow
                                  Lateral    Total  Time of Max      Inflow      Inflow     Balance
                                   Inflow   Inflow   Occurrence      Volume      Volume       Error
  Node                 Type           CMS      CMS  days hr:min    10^6 ltr    10^6 ltr     Percent
  -------------------------------------------------------------------------------------------------
  J1                   JUNCTION     0.200    0.200     0  09:56        3.72        3.72      -0.040
  J3                   JUNCTION     0.000    0.302     0  12:45           0        16.6       0.259
  CSO7                 JUNCTION     0.067    0.067     0  09:46        1.43        1.43       0.006
  J5                   JUNCTION     0.088    0.147     0  09:46         1.5        2.93      -0.012
  CSO9                 JUNCTION     0.071    0.071     0  12:16        1.45        1.45       0.026
  J8                   JUNCTION     0.295    0.357     0  12:21        6.78        8.23       0.048
  CSO8                 JUNCTION     0.275    0.275     0  12:21        5.64        5.64       0.008
  J10                  JUNCTION     0.250    0.446     0  12:21        4.12        9.75      -0.002
  J13                  JUNCTION     0.340    0.340     0  09:36        5.08        5.08      -0.136
  J15                  JUNCTION     0.000    0.872     0  09:57           0        30.5       0.300
  J16                  JUNCTION     0.410    0.410     0  09:56        6.63        6.63      -0.028
  CSO10                JUNCTION     0.134    0.134     0  09:56        2.24        2.24       0.013
  J12                  JUNCTION     0.000    0.600     0  12:23           0        17.5       3.429
  J4                   JUNCTION     0.000    0.066     0  09:46           0        1.43       0.107
  J6                   JUNCTION     0.000    0.073     0  12:44           0        2.92       0.057
  J2                   JUNCTION     0.000    0.039     0  09:40           0        2.37       0.209
  J19                  JUNCTION     0.000    0.271     0  08:07           0          18       0.070
  J9                   JUNCTION     0.000    0.175     0  12:21           0        7.76       0.185
  J14                  JUNCTION     0.000    0.190     0  11:38           0        11.4       0.089
  J17                  JUNCTION     0.000    0.124     0  12:37           0        5.06       0.068
  J7                   JUNCTION     0.000    0.068     0  12:17           0        1.45       0.203
  J11                  JUNCTION     0.000    0.272     0  12:21           0        5.64       0.144
  J18                  JUNCTION     0.000    0.128     0  09:56           0        2.24       0.019
  Out_to_WWTP          OUTFALL      0.000    0.271     0  08:09           0          18       0.000
  T5                   STORAGE      0.000    0.187     0  09:56           0        3.72       9.369
  T4                   STORAGE      0.000    0.142     0  09:52           0        2.93       0.122
  T6                   STORAGE      0.000    0.346     0  12:22           0        8.22       2.125
  T3                   STORAGE      0.000    0.654     0  12:24           0        16.9       8.492
  T2                   STORAGE      0.000    0.315     0  09:42           0        5.08       0.217
  T1                   STORAGE      0.000    0.839     0  09:59           0        30.4       2.797
  
  
  **********************
  Node Surcharge Summary
  **********************
  
  Surcharging occurs when water rises above the top of the highest conduit.
  ---------------------------------------------------------------------
                                               Max. Height   Min. Depth
                                   Hours       Above Crown    Below Rim
  Node                 Type      Surcharged         Meters       Meters
  ---------------------------------------------------------------------
  CSO7                 JUNCTION        0.22          0.558        0.387
  
  
  *********************
  Node Flooding Summary
  *********************
  
  Flooding refers to all water that overflows a node, whether it ponds or not.
  --------------------------------------------------------------------------
                                                             Total   Maximum
                                 Maximum   Time of Max       Flood    Ponded
                        Hours       Rate    Occurrence      Volume     Depth
  Node                 Flooded       CMS   days hr:min    10^6 ltr    Meters
  --------------------------------------------------------------------------
  T5                      3.79     0.148      0  09:57       0.718     0.000
  T6                      0.68     0.171      0  12:22       0.176     0.000
  T3                      3.80     0.465      0  12:25       1.756     0.000
  T1                     15.20     0.568      0  09:59      10.889     0.000
  
  
  **********************
  Storage Volume Summary
  **********************
  
  --------------------------------------------------------------------------------------------------
                         Average     Avg  Evap Exfil       Maximum     Max    Time of Max    Maximum
                          Volume    Pcnt  Pcnt  Pcnt        Volume    Pcnt     Occurrence    Outflow
  Storage Unit           1000 m3    Full  Loss  Loss       1000 m3    Full    days hr:min        CMS
  --------------------------------------------------------------------------------------------------
  T5                       0.310      62     0     0         0.500     100       0  09:40      0.039
  T4                       0.133      27     0     0         0.421      84       0  12:44      0.073
  T6                       0.222      37     0     0         0.600     100       0  12:21      0.175
  T3                       1.667      64     0     0         2.600     100       0  11:38      0.190
  T2                       0.256      26     0     0         0.787      79       0  12:37      0.124
  T1                       0.518      74     0     0         0.700     100       0  08:07      0.271
  
  
  ***********************
  Outfall Loading Summary
  ***********************
  
  -----------------------------------------------------------
                         Flow       Avg       Max       Total
                         Freq      Flow      Flow      Volume
  Outfall Node           Pcnt       CMS       CMS    10^6 ltr
  -----------------------------------------------------------
  Out_to_WWTP           99.43     0.213     0.271      18.005
  -----------------------------------------------------------
  System                99.43     0.213     0.271      18.005
  
  
  ********************
  Link Flow Summary
  ********************
  
  -----------------------------------------------------------------------------
                                 Maximum  Time of Max   Maximum    Max/    Max/
                                  |Flow|   Occurrence   |Veloc|    Full    Full
  Link                 Type          CMS  days hr:min     m/sec    Flow   Depth
  -----------------------------------------------------------------------------
  C1                   CONDUIT     0.039     0  10:28      0.75    0.01    0.12
  C6                   CONDUIT     0.060     0  09:56      1.27    0.96    0.68
  C2                   CONDUIT     0.073     0  12:45      1.40    0.08    0.24
  C9                   CONDUIT     0.065     0  12:23      1.05    0.22    0.35
  C16                  CONDUIT     0.250     0  12:23      1.44    0.02    0.10
  C3                   CONDUIT     0.190     0  11:41      2.13    0.07    0.18
  C19                  CONDUIT     0.124     0  12:39      1.15    0.04    0.22
  C11                  CONDUIT     0.302     0  12:47      1.91    0.01    0.12
  C20                  CONDUIT     0.380     0  09:57      2.14    0.01    0.11
  C22                  CONDUIT     0.121     0  09:58      1.16    0.05    0.27
  C12                  CONDUIT     0.175     0  13:02      0.96    0.01    0.29
  C17                  CONDUIT     0.426     0  12:23      2.42    0.02    0.30
  C10                  CONDUIT     0.346     0  12:22      1.43    0.04    0.56
  C13                  CONDUIT     0.654     0  12:24      1.84    0.04    0.75
  C18                  CONDUIT     0.315     0  09:42      1.78    0.01    0.54
  C23                  CONDUIT     0.839     0  09:59      1.43    0.09    0.60
  C4                   CONDUIT     0.187     0  09:56      1.38    0.05    0.57
  C7                   CONDUIT     0.142     0  09:52      1.33    0.03    0.56
  C14                  CONDUIT     0.271     0  08:09      2.08    0.02    0.09
  C5                   CONDUIT     0.066     0  09:46      1.29    1.13    1.00
  C8                   CONDUIT     0.068     0  12:17      1.32    0.86    0.62
  C15                  CONDUIT     0.272     0  12:21      2.67    0.86    0.61
  C21                  CONDUIT     0.128     0  09:56      1.73    0.73    0.49
  V4                   ORIFICE     0.073     0  12:44                      1.00
  V5                   ORIFICE     0.039     0  09:40                      1.00
  V1                   ORIFICE     0.271     0  08:07                      1.00
  V6                   ORIFICE     0.175     0  12:21                      1.00
  V3                   ORIFICE     0.190     0  11:38                      1.00
  V2                   ORIFICE     0.124     0  12:37                      1.00
  
  
  ***************************
  Flow Classification Summary
  ***************************
  
  -------------------------------------------------------------------------------------
                      Adjusted    ---------- Fraction of Time in Flow Class ---------- 
                       /Actual         Up    Down  Sub   Sup   Up    Down  Norm  Inlet 
  Conduit               Length    Dry  Dry   Dry   Crit  Crit  Crit  Crit  Ltd   Ctrl  
  -------------------------------------------------------------------------------------
  C1                      1.00   0.00  0.00  0.00  0.93  0.07  0.00  0.00  0.97  0.00
  C6                      1.00   0.00  0.00  0.00  0.03  0.97  0.00  0.00  0.00  0.00
  C2                      1.00   0.00  0.00  0.00  0.33  0.67  0.00  0.00  0.97  0.00
  C9                      1.00   0.00  0.00  0.00  1.00  0.00  0.00  0.00  1.00  0.00
  C16                     1.00   0.00  0.14  0.00  0.07  0.79  0.00  0.00  0.05  0.00
  C3                      1.00   0.00  0.00  0.00  0.04  0.96  0.00  0.00  0.07  0.00
  C19                     1.00   0.00  0.00  0.00  0.95  0.05  0.00  0.00  1.00  0.00
  C11                     1.00   0.00  0.00  0.00  0.10  0.90  0.00  0.00  1.00  0.00
  C20                     1.00   0.00  0.00  0.00  0.74  0.26  0.00  0.00  0.99  0.00
  C22                     1.00   0.00  0.00  0.00  0.99  0.01  0.00  0.00  1.00  0.00
  C12                     1.00   0.00  0.00  0.00  0.81  0.19  0.00  0.00  0.99  0.00
  C17                     1.00   0.00  0.00  0.00  0.76  0.24  0.00  0.00  0.97  0.00
  C10                     1.00   0.00  0.00  0.00  0.83  0.17  0.00  0.00  0.97  0.00
  C13                     1.00   0.00  0.00  0.00  0.83  0.17  0.00  0.00  0.33  0.00
  C18                     1.00   0.00  0.00  0.00  0.83  0.17  0.00  0.00  0.97  0.00
  C23                     1.00   0.00  0.00  0.00  0.83  0.17  0.00  0.00  0.96  0.00
  C4                      1.00   0.00  0.00  0.00  0.84  0.16  0.00  0.00  0.98  0.00
  C7                      1.00   0.00  0.00  0.00  0.83  0.17  0.00  0.00  0.84  0.00
  C14                     1.00   0.00  0.00  0.00  0.00  1.00  0.00  0.00  0.10  0.00
  C5                      1.00   0.00  0.00  0.00  0.92  0.08  0.00  0.00  0.97  0.00
  C8                      1.00   0.00  0.00  0.00  0.12  0.88  0.00  0.00  0.00  0.00
  C15                     1.00   0.14  0.00  0.00  0.00  0.86  0.00  0.00  0.00  0.00
  C21                     1.00   0.00  0.00  0.00  0.00  1.00  0.00  0.00  0.00  0.00
  
  
  *************************
  Conduit Surcharge Summary
  *************************
  
  ----------------------------------------------------------------------------
                                                           Hours        Hours 
                         --------- Hours Full --------   Above Full   Capacity
  Conduit                Both Ends  Upstream  Dnstream   Normal Flow   Limited
  ----------------------------------------------------------------------------
  C10                         0.01      0.01     10.03      0.01         0.01
  C13                         0.01      0.01     15.38      0.01         0.01
  C18                         0.01      0.01      6.25      0.01         0.01
  C23                         0.01      0.01     19.09      0.01         0.01
  C4                          0.01      0.01     18.64      0.01         0.01
  C7                          0.01      0.01      9.90      0.01         0.01
  C5                          0.22      0.22      0.42      0.38         0.17
  

  Analysis begun on:  Mon Sep 20 23:11:51 2021
  Analysis ended on:  Mon Sep 20 23:11:52 2021
  Total elapsed time: 00:00:01