
  EPA STORM WATER MANAGEMENT MODEL - VERSION 5.1 (Build 5.3.0.dev0)
  --------------------------------------------------------------

  WARNING 09: time series interval greater than recording interval for Rain Gage RG1
  WARNING 09: time series interval greater than recording interval for Rain Gage RG2
  WARNING 09: time series interval greater than recording interval for Rain Gage RG3
  WARNING 09: time series interval greater than recording interval for Rain Gage RG4
  
  *********************************************************
  NOTE: The summary statistics displayed in this report are
  based on results found at every computational time step,  
  not just on results from each reporting time step.
  *********************************************************
  
  ****************
  Analysis Options
  ****************
  Flow Units ............... CMS
  Process Models:
    Rainfall/Runoff ........ YES
    RDII ................... NO
    Snowmelt ............... NO
    Groundwater ............ NO
    Flow Routing ........... YES
    Ponding Allowed ........ YES
    Water Quality .......... NO
  Infiltration Method ...... HORTON
  Flow Routing Method ...... DYNWAVE
  Surcharge Method ......... EXTRAN
  Starting Date ............ 08/28/2015 00:00:00
  Ending Date .............. 08/28/2015 23:40:00
  Antecedent Dry Days ...... 0.0
  Report Time Step ......... 00:01:00
  Wet Time Step ............ 00:01:00
  Dry Time Step ............ 00:01:00
  Routing Time Step ........ 5.00 sec
  Variable Time Step ....... YES
  Maximum Trials ........... 8
  Number of Threads ........ 1
  Head Tolerance ........... 0.001500 m
  
  
  **************************        Volume         Depth
  Runoff Quantity Continuity     hectare-m            mm
  **************************     ---------       -------
  Total Precipitation ......         2.376        13.183
  Evaporation Loss .........         0.000         0.000
  Infiltration Loss ........         0.000         0.000
  Surface Runoff ...........         2.362        13.107
  Final Storage ............         0.015         0.086
  Continuity Error (%) .....        -0.074
  
  
  **************************        Volume        Volume
  Flow Routing Continuity        hectare-m      10^6 ltr
  **************************     ---------     ---------
  Dry Weather Inflow .......         0.758         7.576
  Wet Weather Inflow .......         2.362        23.619
  Groundwater Inflow .......         0.000         0.000
  RDII Inflow ..............         0.000         0.000
  External Inflow ..........         0.000         0.000
  External Outflow .........         1.500        15.004
  Flooding Loss ............         1.270        12.695
  Evaporation Loss .........         0.000         0.000
  Exfiltration Loss ........         0.000         0.000
  Initial Stored Volume ....         0.000         0.000
  Final Stored Volume ......         0.304         3.043
  Continuity Error (%) .....         1.451
  
  
  *************************
  Highest Continuity Errors
  *************************
  Node T3 (5.59%)
  Node T5 (5.53%)
  Node T1 (2.33%)
  
  
  ***************************
  Time-Step Critical Elements
  ***************************
  None
  
  
  ********************************
  Highest Flow Instability Indexes
  ********************************
  Link C15 (1)
  
  
  *************************
  Routing Time Step Summary
  *************************
  Minimum Time Step           :     1.41 sec
  Average Time Step           :     5.00 sec
  Maximum Time Step           :     5.00 sec
  Percent in Steady State     :     0.00
  Average Iterations per Step :     2.30
  Percent Not Converging      :     2.04
  
  
  ***************************
  Subcatchment Runoff Summary
  ***************************
  
  ------------------------------------------------------------------------------------------------------------------------------
                            Total      Total      Total      Total     Imperv       Perv      Total       Total     Peak  Runoff
                           Precip      Runon       Evap      Infil     Runoff     Runoff     Runoff      Runoff   Runoff   Coeff
  Subcatchment                 mm         mm         mm         mm         mm         mm         mm    10^6 ltr      CMS
  ------------------------------------------------------------------------------------------------------------------------------
  SC01                      14.09       0.00       0.00       0.00      14.04       0.00      14.04        4.63     0.69   0.996
  SC02                      12.35       0.00       0.00       0.00      12.29       0.00      12.29        2.80     0.38   0.995
  SC03                      12.66       0.00       0.00       0.00      12.62       0.00      12.62        2.27     0.35   0.997
  SC04                      12.35       0.00       0.00       0.00      12.25       0.00      12.25        0.85     0.10   0.992
  SC05                      14.09       0.00       0.00       0.00      14.03       0.00      14.03        2.19     0.32   0.996
  SC06                      13.13       0.00       0.00       0.00      13.00       0.00      13.00        4.23     0.59   0.990
  SC07                      12.35       0.00       0.00       0.00      12.25       0.00      12.25        0.58     0.07   0.992
  SC08                      12.66       0.00       0.00       0.00      12.59       0.00      12.59        3.52     0.44   0.994
  SC09                      13.13       0.00       0.00       0.00      13.04       0.00      13.04        0.90     0.14   0.993
  SC010                     14.09       0.00       0.00       0.00      14.02       0.00      14.02        1.65     0.23   0.995
  
  
  ******************
  Node Depth Summary
  ******************
  
  ---------------------------------------------------------------------------------
                                 Average  Maximum  Maximum  Time of Max    Reported
                                   Depth    Depth      HGL   Occurrence   Max Depth
  Node                 Type       Meters   Meters   Meters  days hr:min      Meters
  ---------------------------------------------------------------------------------
  J1                   JUNCTION     0.05     0.19    34.19     0  10:31        0.19
  J3                   JUNCTION     0.11     0.17    18.17     0  12:09        0.17
  CSO7                 JUNCTION     0.11     1.20    35.20     0  10:10        1.20
  J5                   JUNCTION     0.05     0.14    32.14     0  10:37        0.14
  CSO9                 JUNCTION     0.14     2.00    42.00     0  10:11        2.00
  J8                   JUNCTION     0.08     0.27    36.27     0  10:52        0.27
  CSO8                 JUNCTION     0.11     2.00    34.00     0  09:51        1.89
  J10                  JUNCTION     0.07     0.25    29.25     0  10:02        0.25
  J13                  JUNCTION     0.05     0.16    29.16     0  10:01        0.16
  J15                  JUNCTION     0.16     0.36    15.36     0  10:58        0.36
  J16                  JUNCTION     0.05     0.20    30.20     0  10:31        0.20
  CSO10                JUNCTION     0.10     1.00    31.00     0  10:06        1.00
  J12                  JUNCTION     0.37     1.02    27.02     0  11:50        1.02
  J4                   JUNCTION     0.11     0.83    33.83     0  11:10        0.78
  J6                   JUNCTION     0.06     0.12    25.12     0  12:07        0.12
  J2                   JUNCTION     0.06     0.08    25.08     0  11:26        0.08
  J19                  JUNCTION     0.13     0.17     8.17     0  10:10        0.17
  J9                   JUNCTION     0.09     0.16    29.16     0  11:49        0.16
  J14                  JUNCTION     0.13     0.19    20.19     0  15:58        0.19
  J17                  JUNCTION     0.07     0.14    20.14     0  11:56        0.14
  J7                   JUNCTION     0.06     0.23    39.23     0  10:53        0.23
  J11                  JUNCTION     0.06     0.27    31.27     0  10:12        0.27
  J18                  JUNCTION     0.04     0.16    29.16     0  10:33        0.16
  Out_to_WWTP          OUTFALL      0.13     0.17     6.17     0  20:43        0.17
  T5                   STORAGE      2.32     5.00    32.00     0  10:36        5.00
  T4                   STORAGE      1.02     4.36    31.36     0  12:05        4.36
  T6                   STORAGE      1.33     5.00    36.00     0  10:38        5.00
  T3                   STORAGE      2.58     5.00    27.00     0  11:43        5.00
  T2                   STORAGE      0.96     4.06    25.06     0  11:54        4.06
  T1                   STORAGE      2.98     5.00    15.00     0  10:08        5.00
  
  
  *******************
  Node Inflow Summary
  *******************
  
  -------------------------------------------------------------------------------------------------
                                  Maximum  Maximum                  Lateral       Total        Flow
                                  Lateral    Total  Time of Max      Inflow      Inflow     Balance
                                   Inflow   Inflow   Occurrence      Volume      Volume       Error
  Node                 Type           CMS      CMS  days hr:min    10^6 ltr    10^6 ltr     Percent
  -------------------------------------------------------------------------------------------------
  J1                   JUNCTION     0.343    0.343     0  10:31        3.28        3.28      -0.024
  J3                   JUNCTION     0.000    0.303     0  12:07           0        13.7       0.247
  CSO7                 JUNCTION     0.081    0.081     0  10:36        1.15        1.15       0.005
  J5                   JUNCTION     0.106    0.177     0  10:36        1.09        2.23      -0.013
  CSO9                 JUNCTION     0.145    0.145     0  10:51        1.28        1.28      -0.007
  J8                   JUNCTION     0.627    0.743     0  10:51        6.06        7.34      -0.007
  CSO8                 JUNCTION     0.448    0.448     0  10:01        3.97        3.97      -0.031
  J10                  JUNCTION     0.361    0.716     0  10:01        3.02        6.99      -0.098
  J13                  JUNCTION     0.399    0.399     0  09:56        3.71        3.71      -0.150
  J15                  JUNCTION     0.000    1.194     0  10:57           0        24.9       0.274
  J16                  JUNCTION     0.714    0.714     0  10:31        5.71        5.71      -0.039
  CSO10                JUNCTION     0.238    0.238     0  10:31        1.92        1.92      -0.048
  J12                  JUNCTION     0.000    0.791     0  10:12           0        12.6       0.044
  J4                   JUNCTION     0.000    0.071     0  10:06           0        1.14       0.070
  J6                   JUNCTION     0.000    0.074     0  12:05           0        2.23       0.010
  J2                   JUNCTION     0.000    0.039     0  10:36           0        1.93       0.207
  J19                  JUNCTION     0.000    0.271     0  10:08           0          15       0.073
  J9                   JUNCTION     0.000    0.175     0  10:38           0        5.64      -0.037
  J14                  JUNCTION     0.000    0.190     0  11:43           0        9.51       0.083
  J17                  JUNCTION     0.000    0.126     0  11:54           0         3.7       0.025
  J7                   JUNCTION     0.000    0.126     0  10:53           0        1.28       0.069
  J11                  JUNCTION     0.000    0.448     0  10:01           0        3.97       0.024
  J18                  JUNCTION     0.000    0.202     0  10:33           0        1.91      -0.033
  Out_to_WWTP          OUTFALL      0.000    0.271     0  10:10           0          15       0.000
  T5                   STORAGE      0.000    0.320     0  10:31           0        3.28       5.857
  T4                   STORAGE      0.000    0.171     0  10:37           0        2.23      -0.003
  T6                   STORAGE      0.000    0.707     0  10:52           0        7.34      -0.008
  T3                   STORAGE      0.000    0.776     0  10:14           0        12.6       5.917
  T2                   STORAGE      0.000    0.366     0  10:01           0        3.71       0.150
  T1                   STORAGE      0.000    1.130     0  10:58           0        24.9       2.381
  
  
  **********************
  Node Surcharge Summary
  **********************
  
  Surcharging occurs when water rises above the top of the highest conduit.
  ---------------------------------------------------------------------
                                               Max. Height   Min. Depth
                                   Hours       Above Crown    Below Rim
  Node                 Type      Surcharged         Meters       Meters
  ---------------------------------------------------------------------
  CSO7                 JUNCTION        1.38          0.945        0.000
  CSO9                 JUNCTION        1.44          1.682        0.000
  CSO8                 JUNCTION        1.07          1.547        0.000
  CSO10                JUNCTION        0.88          0.560        0.000
  J4                   JUNCTION        1.20          0.526        1.174
  
  
  *********************
  Node Flooding Summary
  *********************
  
  Flooding refers to all water that overflows a node, whether it ponds or not.
  --------------------------------------------------------------------------
                                                             Total   Maximum
                                 Maximum   Time of Max       Flood    Ponded
                        Hours       Rate    Occurrence      Volume     Depth
  Node                 Flooded       CMS   days hr:min    10^6 ltr    Meters
  --------------------------------------------------------------------------
  CSO7                    0.46     0.010      0  10:36       0.006     0.000
  CSO9                    0.13     0.019      0  10:51       0.002     0.000
  CSO8                    0.01     0.051      0  09:51       0.001     0.000
  CSO10                   0.26     0.038      0  10:51       0.012     0.000
  T5                      2.94     0.263      0  10:56       0.996     0.000
  T6                      1.91     0.532      0  10:52       1.701     0.000
  T3                      3.33     0.394      0  11:53       1.171     0.000
  T1                     10.17     0.860      0  10:58       8.807     0.000
  
  
  **********************
  Storage Volume Summary
  **********************
  
  --------------------------------------------------------------------------------------------------
                         Average     Avg  Evap Exfil       Maximum     Max    Time of Max    Maximum
                          Volume    Pcnt  Pcnt  Pcnt        Volume    Pcnt     Occurrence    Outflow
  Storage Unit           1000 m3    Full  Loss  Loss       1000 m3    Full    days hr:min        CMS
  --------------------------------------------------------------------------------------------------
  T5                       0.232      46     0     0         0.500     100       0  10:36      0.039
  T4                       0.102      20     0     0         0.436      87       0  12:05      0.074
  T6                       0.159      27     0     0         0.600     100       0  10:38      0.175
  T3                       1.341      52     0     0         2.600     100       0  11:43      0.190
  T2                       0.192      19     0     0         0.812      81       0  11:54      0.126
  T1                       0.417      60     0     0         0.700     100       0  10:08      0.271
  
  
  ***********************
  Outfall Loading Summary
  ***********************
  
  -----------------------------------------------------------
                         Flow       Avg       Max       Total
                         Freq      Flow      Flow      Volume
  Outfall Node           Pcnt       CMS       CMS    10^6 ltr
  -----------------------------------------------------------
  Out_to_WWTP           99.43     0.177     0.271      15.004
  -----------------------------------------------------------
  System                99.43     0.177     0.271      15.004
  
  
  ********************
  Link Flow Summary
  ********************
  
  -----------------------------------------------------------------------------
                                 Maximum  Time of Max   Maximum    Max/    Max/
                                  |Flow|   Occurrence   |Veloc|    Full    Full
  Link                 Type          CMS  days hr:min     m/sec    Flow   Depth
  -----------------------------------------------------------------------------
  C1                   CONDUIT     0.039     0  11:26      0.77    0.01    0.12
  C6                   CONDUIT     0.071     0  10:37      1.29    1.12    0.73
  C2                   CONDUIT     0.074     0  12:07      1.42    0.08    0.24
  C9                   CONDUIT     0.122     0  10:53      1.27    0.42    0.50
  C16                  CONDUIT     0.401     0  10:12      1.67    0.04    0.13
  C3                   CONDUIT     0.190     0  11:46      2.07    0.07    0.18
  C19                  CONDUIT     0.126     0  11:56      1.13    0.04    0.25
  C11                  CONDUIT     0.303     0  12:09      1.85    0.02    0.13
  C20                  CONDUIT     0.659     0  10:31      2.66    0.02    0.14
  C22                  CONDUIT     0.200     0  10:33      1.45    0.09    0.32
  C12                  CONDUIT     0.175     0  11:49      0.91    0.01    0.30
  C17                  CONDUIT     0.683     0  10:02      2.72    0.03    0.29
  C10                  CONDUIT     0.707     0  10:52      0.94    0.07    0.59
  C13                  CONDUIT     0.776     0  10:14      0.85    0.05    0.76
  C18                  CONDUIT     0.366     0  10:01      1.01    0.01    0.54
  C23                  CONDUIT     1.130     0  10:58      0.98    0.12    0.62
  C4                   CONDUIT     0.320     0  10:31      1.13    0.08    0.59
  C7                   CONDUIT     0.171     0  10:37      0.90    0.04    0.57
  C14                  CONDUIT     0.271     0  10:10      2.08    0.02    0.09
  C5                   CONDUIT     0.071     0  10:06      1.39    1.22    1.00
  C8                   CONDUIT     0.126     0  10:53      1.77    1.59    0.85
  C15                  CONDUIT     0.448     0  10:01      3.30    1.42    0.80
  C21                  CONDUIT     0.202     0  10:33      1.85    1.16    0.68
  V4                   ORIFICE     0.074     0  12:05                      1.00
  V5                   ORIFICE     0.039     0  10:36                      1.00
  V1                   ORIFICE     0.271     0  10:08                      1.00
  V6                   ORIFICE     0.175     0  10:38                      1.00
  V3                   ORIFICE     0.190     0  11:43                      1.00
  V2                   ORIFICE     0.126     0  11:54                      1.00
  
  
  ***************************
  Flow Classification Summary
  ***************************
  
  -------------------------------------------------------------------------------------
                      Adjusted    ---------- Fraction of Time in Flow Class ---------- 
                       /Actual         Up    Down  Sub   Sup   Up    Down  Norm  Inlet 
  Conduit               Length    Dry  Dry   Dry   Crit  Crit  Crit  Crit  Ltd   Ctrl  
  -------------------------------------------------------------------------------------
  C1                      1.00   0.00  0.00  0.00  0.93  0.07  0.00  0.00  0.97  0.00
  C6                      1.00   0.00  0.00  0.00  0.07  0.93  0.00  0.00  0.00  0.00
  C2                      1.00   0.00  0.00  0.00  0.38  0.62  0.00  0.00  0.97  0.00
  C9                      1.00   0.00  0.00  0.00  1.00  0.00  0.00  0.00  1.00  0.00
  C16                     1.00   0.00  0.20  0.00  0.44  0.36  0.00  0.00  0.37  0.00
  C3                      1.00   0.00  0.00  0.00  0.04  0.96  0.00  0.00  0.07  0.00
  C19                     1.00   0.00  0.00  0.00  0.95  0.05  0.00  0.00  1.00  0.00
  C11                     1.00   0.00  0.00  0.00  0.13  0.86  0.00  0.00  1.00  0.00
  C20                     1.00   0.00  0.00  0.00  0.82  0.18  0.00  0.00  0.99  0.00
  C22                     1.00   0.00  0.00  0.00  0.96  0.04  0.00  0.00  1.00  0.00
  C12                     1.00   0.00  0.00  0.00  0.57  0.43  0.00  0.00  0.89  0.00
  C17                     1.00   0.00  0.00  0.00  0.74  0.26  0.00  0.00  0.99  0.00
  C10                     1.00   0.00  0.00  0.00  0.72  0.28  0.00  0.00  0.98  0.00
  C13                     1.00   0.00  0.00  0.00  0.77  0.23  0.00  0.00  0.52  0.00
  C18                     1.00   0.00  0.00  0.00  0.58  0.42  0.00  0.00  0.98  0.00
  C23                     1.00   0.00  0.00  0.00  0.79  0.20  0.00  0.00  0.96  0.00
  C4                      1.00   0.00  0.00  0.00  0.82  0.18  0.00  0.00  0.98  0.00
  C7                      1.00   0.00  0.00  0.00  0.70  0.30  0.00  0.00  0.83  0.00
  C14                     1.00   0.00  0.00  0.00  0.00  1.00  0.00  0.00  0.19  0.00
  C5                      1.00   0.00  0.00  0.00  0.94  0.06  0.00  0.00  0.92  0.00
  C8                      1.00   0.00  0.00  0.00  0.28  0.72  0.00  0.00  0.01  0.00
  C15                     1.00   0.20  0.00  0.00  0.00  0.80  0.00  0.00  0.01  0.00
  C21                     1.00   0.00  0.00  0.00  0.01  0.99  0.00  0.00  0.00  0.00
  
  
  *************************
  Conduit Surcharge Summary
  *************************
  
  ----------------------------------------------------------------------------
                                                           Hours        Hours 
                         --------- Hours Full --------   Above Full   Capacity
  Conduit                Both Ends  Upstream  Dnstream   Normal Flow   Limited
  ----------------------------------------------------------------------------
  C6                          0.01      1.20      0.01      0.95         0.01
  C10                         0.01      0.01      6.98      0.01         0.01
  C13                         0.01      0.01     13.53      0.01         0.01
  C18                         0.01      0.01      5.14      0.01         0.01
  C23                         0.01      0.01     14.35      0.01         0.01
  C4                          0.01      0.01     14.37      0.01         0.01
  C7                          0.01      0.01      7.49      0.01         0.01
  C5                          1.36      1.38      1.58      1.45         1.29
  C8                          0.01      1.44      0.01      1.42         0.01
  C15                         0.01      1.07      0.01      1.25         0.01
  C21                         0.01      0.89      0.01      0.77         0.01
  

  Analysis begun on:  Mon Sep 20 22:37:23 2021
  Analysis ended on:  Mon Sep 20 22:37:23 2021
  Total elapsed time: < 1 sec