
  EPA STORM WATER MANAGEMENT MODEL - VERSION 5.1 (Build 5.3.0.dev0)
  --------------------------------------------------------------

  WARNING 09: time series interval greater than recording interval for Rain Gage RG1
  WARNING 09: time series interval greater than recording interval for Rain Gage RG2
  WARNING 09: time series interval greater than recording interval for Rain Gage RG3
  WARNING 09: time series interval greater than recording interval for Rain Gage RG4
  
  *********************************************************
  NOTE: The summary statistics displayed in this report are
  based on results found at every computational time step,  
  not just on results from each reporting time step.
  *********************************************************
  
  ****************
  Analysis Options
  ****************
  Flow Units ............... CMS
  Process Models:
    Rainfall/Runoff ........ YES
    RDII ................... NO
    Snowmelt ............... NO
    Groundwater ............ NO
    Flow Routing ........... YES
    Ponding Allowed ........ YES
    Water Quality .......... NO
  Infiltration Method ...... HORTON
  Flow Routing Method ...... DYNWAVE
  Surcharge Method ......... EXTRAN
  Starting Date ............ 08/28/2015 00:00:00
  Ending Date .............. 08/28/2015 23:40:00
  Antecedent Dry Days ...... 0.0
  Report Time Step ......... 00:01:00
  Wet Time Step ............ 00:01:00
  Dry Time Step ............ 00:01:00
  Routing Time Step ........ 5.00 sec
  Variable Time Step ....... YES
  Maximum Trials ........... 8
  Number of Threads ........ 1
  Head Tolerance ........... 0.001500 m
  
  
  **************************        Volume         Depth
  Runoff Quantity Continuity     hectare-m            mm
  **************************     ---------       -------
  Total Precipitation ......         2.307        12.802
  Evaporation Loss .........         0.000         0.000
  Infiltration Loss ........         0.000         0.000
  Surface Runoff ...........         2.282        12.666
  Final Storage ............         0.028         0.155
  Continuity Error (%) .....        -0.148
  
  
  **************************        Volume        Volume
  Flow Routing Continuity        hectare-m      10^6 ltr
  **************************     ---------     ---------
  Dry Weather Inflow .......         0.758         7.576
  Wet Weather Inflow .......         2.282        22.824
  Groundwater Inflow .......         0.000         0.000
  RDII Inflow ..............         0.000         0.000
  External Inflow ..........         0.000         0.000
  External Outflow .........         2.091        20.912
  Flooding Loss ............         0.519         5.191
  Evaporation Loss .........         0.000         0.000
  Exfiltration Loss ........         0.000         0.000
  Initial Stored Volume ....         0.000         0.000
  Final Stored Volume ......         0.357         3.570
  Continuity Error (%) .....         2.390
  
  
  *************************
  Highest Continuity Errors
  *************************
  Node T5 (8.76%)
  Node T3 (5.37%)
  Node T1 (2.62%)
  Node T6 (1.05%)
  
  
  ***************************
  Time-Step Critical Elements
  ***************************
  None
  
  
  ********************************
  Highest Flow Instability Indexes
  ********************************
  All links are stable.
  
  
  *************************
  Routing Time Step Summary
  *************************
  Minimum Time Step           :     4.50 sec
  Average Time Step           :     5.00 sec
  Maximum Time Step           :     5.00 sec
  Percent in Steady State     :     0.00
  Average Iterations per Step :     2.16
  Percent Not Converging      :     0.13
  
  
  ***************************
  Subcatchment Runoff Summary
  ***************************
  
  ------------------------------------------------------------------------------------------------------------------------------
                            Total      Total      Total      Total     Imperv       Perv      Total       Total     Peak  Runoff
                           Precip      Runon       Evap      Infil     Runoff     Runoff     Runoff      Runoff   Runoff   Coeff
  Subcatchment                 mm         mm         mm         mm         mm         mm         mm    10^6 ltr      CMS
  ------------------------------------------------------------------------------------------------------------------------------
  SC01                      12.98       0.00       0.00       0.00      12.90       0.00      12.90        4.26     0.75   0.994
  SC02                      10.57       0.00       0.00       0.00      10.48       0.00      10.48        2.38     0.51   0.992
  SC03                      12.38       0.00       0.00       0.00      12.35       0.00      12.35        2.22     0.95   0.997
  SC04                      10.57       0.00       0.00       0.00      10.35       0.00      10.35        0.71     0.10   0.979
  SC05                      12.98       0.00       0.00       0.00      12.89       0.00      12.89        2.01     0.34   0.993
  SC06                      14.97       0.00       0.00       0.00      14.67       0.00      14.67        4.78     0.50   0.980
  SC07                      10.57       0.00       0.00       0.00      10.35       0.00      10.35        0.49     0.07   0.980
  SC08                      12.38       0.00       0.00       0.00      12.26       0.00      12.26        3.43     0.99   0.990
  SC09                      14.97       0.00       0.00       0.00      14.81       0.00      14.81        1.02     0.15   0.989
  SC010                     12.98       0.00       0.00       0.00      12.86       0.00      12.86        1.51     0.23   0.991
  
  
  ******************
  Node Depth Summary
  ******************
  
  ---------------------------------------------------------------------------------
                                 Average  Maximum  Maximum  Time of Max    Reported
                                   Depth    Depth      HGL   Occurrence   Max Depth
  Node                 Type       Meters   Meters   Meters  days hr:min      Meters
  ---------------------------------------------------------------------------------
  J1                   JUNCTION     0.06     0.19    34.19     0  03:26        0.19
  J3                   JUNCTION     0.14     0.16    18.16     0  04:48        0.16
  CSO7                 JUNCTION     0.08     1.13    35.13     0  03:11        0.67
  J5                   JUNCTION     0.05     0.13    32.13     0  03:17        0.13
  CSO9                 JUNCTION     0.12     2.00    42.00     0  02:35        2.00
  J8                   JUNCTION     0.09     0.25    36.25     0  03:22        0.24
  CSO8                 JUNCTION     0.12     2.00    34.00     0  02:16        2.00
  J10                  JUNCTION     0.07     0.33    29.33     0  02:32        0.33
  J13                  JUNCTION     0.05     0.18    29.18     0  03:12        0.18
  J15                  JUNCTION     0.19     0.35    15.35     0  03:33        0.35
  J16                  JUNCTION     0.06     0.20    30.20     0  19:42        0.20
  CSO10                JUNCTION     0.10     1.00    31.00     0  03:21        1.00
  J12                  JUNCTION     0.20     0.46    26.46     0  08:15        0.46
  J4                   JUNCTION     0.09     0.26    33.26     0  03:19        0.26
  J6                   JUNCTION     0.07     0.10    25.10     0  04:29        0.10
  J2                   JUNCTION     0.07     0.08    25.08     0  04:34        0.08
  J19                  JUNCTION     0.16     0.17     8.17     0  19:49        0.17
  J9                   JUNCTION     0.11     0.16    29.16     0  04:22        0.16
  J14                  JUNCTION     0.16     0.18    20.18     0  08:57        0.18
  J17                  JUNCTION     0.08     0.12    20.12     0  04:25        0.12
  J7                   JUNCTION     0.07     0.21    39.21     0  02:40        0.21
  J11                  JUNCTION     0.08     0.30    31.30     0  02:39        0.29
  J18                  JUNCTION     0.05     0.16    29.16     0  03:32        0.16
  Out_to_WWTP          OUTFALL      0.16     0.17     6.17     0  13:38        0.17
  T5                   STORAGE      3.14     4.63    31.63     0  04:32        4.63
  T4                   STORAGE      0.56     2.16    29.16     0  04:28        2.16
  T6                   STORAGE      1.73     5.00    36.00     0  03:40        5.00
  T3                   STORAGE      3.16     4.46    26.46     0  08:10        4.46
  T2                   STORAGE      0.54     2.13    23.13     0  04:23        2.13
  T1                   STORAGE      4.34     5.00    15.00     0  03:15        5.00
  
  
  *******************
  Node Inflow Summary
  *******************
  
  -------------------------------------------------------------------------------------------------
                                  Maximum  Maximum                  Lateral       Total        Flow
                                  Lateral    Total  Time of Max      Inflow      Inflow     Balance
                                   Inflow   Inflow   Occurrence      Volume      Volume       Error
  Node                 Type           CMS      CMS  days hr:min    10^6 ltr    10^6 ltr     Percent
  -------------------------------------------------------------------------------------------------
  J1                   JUNCTION     0.345    0.345     0  19:41         3.1         3.1      -0.066
  J3                   JUNCTION     0.000    0.267     0  04:47           0        16.8       0.222
  CSO7                 JUNCTION     0.073    0.073     0  03:11        1.06        1.06       0.028
  J5                   JUNCTION     0.104    0.149     0  03:16       0.962        2.02      -0.080
  CSO9                 JUNCTION     0.148    0.148     0  02:36         1.4         1.4      -0.036
  J8                   JUNCTION     0.506    0.591     0  03:21        6.61        8.01      -0.086
  CSO8                 JUNCTION     0.994    0.994     0  02:31        3.88        3.88      -0.030
  J10                  JUNCTION     0.956    1.418     0  02:31        2.97        6.72      -0.075
  J13                  JUNCTION     0.512    0.512     0  03:11        3.29        3.29      -0.370
  J15                  JUNCTION     0.000    1.172     0  03:27           0        27.2       0.287
  J16                  JUNCTION     0.763    0.763     0  19:41        5.34        5.34      -0.107
  CSO10                JUNCTION     0.233    0.233     0  03:26        1.78        1.78      -0.042
  J12                  JUNCTION     0.000    1.286     0  02:32           0        14.4       0.074
  J4                   JUNCTION     0.000    0.071     0  03:11           0        1.06       0.130
  J6                   JUNCTION     0.000    0.052     0  04:28           0        2.01       0.065
  J2                   JUNCTION     0.000    0.038     0  04:32           0        2.57       0.176
  J19                  JUNCTION     0.000    0.271     0  03:15           0        20.9       0.057
  J9                   JUNCTION     0.000    0.175     0  03:40           0        7.67       0.221
  J14                  JUNCTION     0.000    0.179     0  08:10           0        12.2       0.067
  J17                  JUNCTION     0.000    0.091     0  04:23           0        3.28       0.072
  J7                   JUNCTION     0.000    0.124     0  02:38           0         1.4       0.113
  J11                  JUNCTION     0.000    0.486     0  02:39           0        3.75       0.129
  J18                  JUNCTION     0.000    0.202     0  03:32           0        1.78      -0.047
  Out_to_WWTP          OUTFALL      0.000    0.271     0  19:49           0        20.9       0.000
  T5                   STORAGE      0.000    0.314     0  03:26           0        3.11       9.597
  T4                   STORAGE      0.000    0.145     0  03:17           0        2.02       0.222
  T6                   STORAGE      0.000    0.564     0  03:22           0        8.01       1.056
  T3                   STORAGE      0.000    1.144     0  02:34           0        14.4       5.677
  T2                   STORAGE      0.000    0.447     0  03:12           0        3.31       0.428
  T1                   STORAGE      0.000    1.096     0  03:33           0        27.1       2.693
  
  
  **********************
  Node Surcharge Summary
  **********************
  
  Surcharging occurs when water rises above the top of the highest conduit.
  ---------------------------------------------------------------------
                                               Max. Height   Min. Depth
                                   Hours       Above Crown    Below Rim
  Node                 Type      Surcharged         Meters       Meters
  ---------------------------------------------------------------------
  CSO7                 JUNCTION        0.08          0.877        0.067
  CSO9                 JUNCTION        0.91          1.682        0.000
  CSO8                 JUNCTION        0.57          1.547        0.000
  CSO10                JUNCTION        0.29          0.560        0.000
  
  
  *********************
  Node Flooding Summary
  *********************
  
  Flooding refers to all water that overflows a node, whether it ponds or not.
  --------------------------------------------------------------------------
                                                             Total   Maximum
                                 Maximum   Time of Max       Flood    Ponded
                        Hours       Rate    Occurrence      Volume     Depth
  Node                 Flooded       CMS   days hr:min    10^6 ltr    Meters
  --------------------------------------------------------------------------
  CSO9                    0.06     0.040      0  02:35       0.003     0.000
  CSO8                    0.20     0.509      0  02:31       0.126     0.000
  CSO10                   0.07     0.033      0  03:26       0.004     0.000
  T6                      0.69     0.198      0  03:40       0.194     0.000
  T1                     11.75     0.826      0  03:33       4.864     0.000
  
  
  **********************
  Storage Volume Summary
  **********************
  
  --------------------------------------------------------------------------------------------------
                         Average     Avg  Evap Exfil       Maximum     Max    Time of Max    Maximum
                          Volume    Pcnt  Pcnt  Pcnt        Volume    Pcnt     Occurrence    Outflow
  Storage Unit           1000 m3    Full  Loss  Loss       1000 m3    Full    days hr:min        CMS
  --------------------------------------------------------------------------------------------------
  T5                       0.314      63     0     0         0.463      93       0  04:32      0.038
  T4                       0.056      11     0     0         0.216      43       0  04:28      0.052
  T6                       0.208      35     0     0         0.600     100       0  03:40      0.175
  T3                       1.644      63     0     0         2.318      89       0  08:10      0.179
  T2                       0.109      11     0     0         0.427      43       0  04:23      0.091
  T1                       0.608      87     0     0         0.700     100       0  03:15      0.271
  
  
  ***********************
  Outfall Loading Summary
  ***********************
  
  -----------------------------------------------------------
                         Flow       Avg       Max       Total
                         Freq      Flow      Flow      Volume
  Outfall Node           Pcnt       CMS       CMS    10^6 ltr
  -----------------------------------------------------------
  Out_to_WWTP           99.63     0.246     0.271      20.911
  -----------------------------------------------------------
  System                99.63     0.246     0.271      20.911
  
  
  ********************
  Link Flow Summary
  ********************
  
  -----------------------------------------------------------------------------
                                 Maximum  Time of Max   Maximum    Max/    Max/
                                  |Flow|   Occurrence   |Veloc|    Full    Full
  Link                 Type          CMS  days hr:min     m/sec    Flow   Depth
  -----------------------------------------------------------------------------
  C1                   CONDUIT     0.038     0  04:34      0.85    0.01    0.12
  C6                   CONDUIT     0.059     0  03:20      1.26    0.93    0.64
  C2                   CONDUIT     0.052     0  04:29      1.20    0.06    0.22
  C9                   CONDUIT     0.109     0  02:40      1.28    0.37    0.45
  C16                  CONDUIT     0.485     0  02:36      1.78    0.05    0.16
  C3                   CONDUIT     0.179     0  08:11      2.07    0.07    0.17
  C19                  CONDUIT     0.091     0  04:25      1.02    0.03    0.24
  C11                  CONDUIT     0.266     0  04:49      1.84    0.01    0.13
  C20                  CONDUIT     0.688     0  19:42      3.25    0.02    0.14
  C22                  CONDUIT     0.198     0  03:32      1.45    0.09    0.32
  C12                  CONDUIT     0.175     0  04:22      1.25    0.01    0.15
  C17                  CONDUIT     1.221     0  02:32      3.54    0.06    0.17
  C10                  CONDUIT     0.564     0  03:22      1.36    0.06    0.58
  C13                  CONDUIT     1.144     0  02:34      1.95    0.07    0.61
  C18                  CONDUIT     0.447     0  03:12      2.25    0.02    0.53
  C23                  CONDUIT     1.096     0  03:33      1.89    0.12    0.62
  C4                   CONDUIT     0.314     0  03:26      1.77    0.08    0.59
  C7                   CONDUIT     0.145     0  03:17      1.56    0.04    0.56
  C14                  CONDUIT     0.271     0  19:49      2.08    0.02    0.09
  C5                   CONDUIT     0.071     0  03:11      1.53    1.21    1.00
  C8                   CONDUIT     0.124     0  02:38      2.01    1.57    0.83
  C15                  CONDUIT     0.486     0  02:39      3.52    1.55    0.83
  C21                  CONDUIT     0.202     0  03:32      1.87    1.16    0.68
  V4                   ORIFICE     0.052     0  04:28                      1.00
  V5                   ORIFICE     0.038     0  04:32                      1.00
  V1                   ORIFICE     0.271     0  03:15                      1.00
  V6                   ORIFICE     0.175     0  03:40                      1.00
  V3                   ORIFICE     0.179     0  08:10                      1.00
  V2                   ORIFICE     0.091     0  04:23                      1.00
  
  
  ***************************
  Flow Classification Summary
  ***************************
  
  -------------------------------------------------------------------------------------
                      Adjusted    ---------- Fraction of Time in Flow Class ---------- 
                       /Actual         Up    Down  Sub   Sup   Up    Down  Norm  Inlet 
  Conduit               Length    Dry  Dry   Dry   Crit  Crit  Crit  Crit  Ltd   Ctrl  
  -------------------------------------------------------------------------------------
  C1                      1.00   0.00  0.00  0.00  0.96  0.04  0.00  0.00  0.98  0.00
  C6                      1.00   0.00  0.00  0.00  0.02  0.98  0.00  0.00  0.00  0.00
  C2                      1.00   0.00  0.00  0.00  0.71  0.29  0.00  0.00  0.98  0.00
  C9                      1.00   0.00  0.00  0.00  0.99  0.01  0.00  0.00  1.00  0.00
  C16                     1.00   0.00  0.00  0.00  0.62  0.38  0.00  0.00  0.40  0.00
  C3                      1.00   0.00  0.00  0.00  0.02  0.98  0.00  0.00  0.09  0.00
  C19                     1.00   0.00  0.00  0.00  0.95  0.05  0.00  0.00  1.00  0.00
  C11                     1.00   0.00  0.00  0.00  0.11  0.89  0.00  0.00  1.00  0.00
  C20                     1.00   0.00  0.00  0.00  0.83  0.17  0.00  0.00  0.99  0.00
  C22                     1.00   0.00  0.00  0.00  0.95  0.05  0.00  0.00  1.00  0.00
  C12                     1.00   0.00  0.00  0.00  0.54  0.46  0.00  0.00  0.90  0.00
  C17                     1.00   0.00  0.00  0.00  0.57  0.43  0.00  0.00  0.96  0.00
  C10                     1.00   0.00  0.00  0.00  0.93  0.07  0.00  0.00  0.99  0.00
  C13                     1.00   0.00  0.00  0.00  0.95  0.05  0.00  0.00  0.65  0.00
  C18                     1.00   0.00  0.00  0.00  0.91  0.09  0.00  0.00  0.99  0.00
  C23                     1.00   0.00  0.00  0.00  0.98  0.02  0.00  0.00  0.98  0.00
  C4                      1.00   0.00  0.00  0.00  0.98  0.02  0.00  0.00  0.99  0.00
  C7                      1.00   0.00  0.00  0.00  0.98  0.02  0.00  0.00  0.99  0.00
  C14                     1.00   0.00  0.00  0.00  0.00  1.00  0.00  0.00  0.27  0.00
  C5                      1.00   0.00  0.00  0.00  0.94  0.06  0.00  0.00  0.97  0.00
  C8                      1.00   0.00  0.00  0.00  0.16  0.84  0.00  0.00  0.00  0.00
  C15                     1.00   0.00  0.00  0.00  0.00  1.00  0.00  0.00  0.00  0.00
  C21                     1.00   0.00  0.00  0.00  0.01  0.99  0.00  0.00  0.00  0.00
  
  
  *************************
  Conduit Surcharge Summary
  *************************
  
  ----------------------------------------------------------------------------
                                                           Hours        Hours 
                         --------- Hours Full --------   Above Full   Capacity
  Conduit                Both Ends  Upstream  Dnstream   Normal Flow   Limited
  ----------------------------------------------------------------------------
  C10                         0.01      0.01     10.16      0.01         0.01
  C13                         0.01      0.01     20.89      0.01         0.01
  C18                         0.01      0.01      1.47      0.01         0.01
  C23                         0.01      0.01     21.28      0.01         0.01
  C4                          0.01      0.01     21.23      0.01         0.01
  C7                          0.01      0.01      4.26      0.01         0.01
  C5                          0.01      0.08      0.02      0.14         0.01
  C8                          0.01      0.91      0.01      0.93         0.01
  C15                         0.01      0.57      0.01      0.65         0.01
  C21                         0.01      0.29      0.01      0.22         0.01
  

  Analysis begun on:  Tue Sep 21 00:06:44 2021
  Analysis ended on:  Tue Sep 21 00:06:44 2021
  Total elapsed time: < 1 sec