
  EPA STORM WATER MANAGEMENT MODEL - VERSION 5.1 (Build 5.3.0.dev0)
  --------------------------------------------------------------

  WARNING 09: time series interval greater than recording interval for Rain Gage RG1
  WARNING 09: time series interval greater than recording interval for Rain Gage RG2
  WARNING 09: time series interval greater than recording interval for Rain Gage RG3
  WARNING 09: time series interval greater than recording interval for Rain Gage RG4
  
  *********************************************************
  NOTE: The summary statistics displayed in this report are
  based on results found at every computational time step,  
  not just on results from each reporting time step.
  *********************************************************
  
  ****************
  Analysis Options
  ****************
  Flow Units ............... CMS
  Process Models:
    Rainfall/Runoff ........ YES
    RDII ................... NO
    Snowmelt ............... NO
    Groundwater ............ NO
    Flow Routing ........... YES
    Ponding Allowed ........ YES
    Water Quality .......... NO
  Infiltration Method ...... HORTON
  Flow Routing Method ...... DYNWAVE
  Surcharge Method ......... EXTRAN
  Starting Date ............ 08/28/2015 00:00:00
  Ending Date .............. 08/28/2015 23:40:00
  Antecedent Dry Days ...... 0.0
  Report Time Step ......... 00:01:00
  Wet Time Step ............ 00:01:00
  Dry Time Step ............ 00:01:00
  Routing Time Step ........ 5.00 sec
  Variable Time Step ....... YES
  Maximum Trials ........... 8
  Number of Threads ........ 1
  Head Tolerance ........... 0.001500 m
  
  
  **************************        Volume         Depth
  Runoff Quantity Continuity     hectare-m            mm
  **************************     ---------       -------
  Total Precipitation ......         2.317        12.856
  Evaporation Loss .........         0.000         0.000
  Infiltration Loss ........         0.000         0.000
  Surface Runoff ...........         2.297        12.748
  Final Storage ............         0.022         0.121
  Continuity Error (%) .....        -0.102
  
  
  **************************        Volume        Volume
  Flow Routing Continuity        hectare-m      10^6 ltr
  **************************     ---------     ---------
  Dry Weather Inflow .......         0.758         7.576
  Wet Weather Inflow .......         2.297        22.971
  Groundwater Inflow .......         0.000         0.000
  RDII Inflow ..............         0.000         0.000
  External Inflow ..........         0.000         0.000
  External Outflow .........         1.418        14.185
  Flooding Loss ............         1.063        10.627
  Evaporation Loss .........         0.000         0.000
  Exfiltration Loss ........         0.000         0.000
  Initial Stored Volume ....         0.000         0.000
  Final Stored Volume ......         0.450         4.497
  Continuity Error (%) .....         4.055
  
  
  *************************
  Highest Continuity Errors
  *************************
  Node T3 (8.96%)
  Node T5 (8.41%)
  Node T1 (3.39%)
  Node T2 (1.11%)
  
  
  ***************************
  Time-Step Critical Elements
  ***************************
  None
  
  
  ********************************
  Highest Flow Instability Indexes
  ********************************
  All links are stable.
  
  
  *************************
  Routing Time Step Summary
  *************************
  Minimum Time Step           :     4.50 sec
  Average Time Step           :     5.00 sec
  Maximum Time Step           :     5.00 sec
  Percent in Steady State     :     0.00
  Average Iterations per Step :     2.15
  Percent Not Converging      :     0.40
  
  
  ***************************
  Subcatchment Runoff Summary
  ***************************
  
  ------------------------------------------------------------------------------------------------------------------------------
                            Total      Total      Total      Total     Imperv       Perv      Total       Total     Peak  Runoff
                           Precip      Runon       Evap      Infil     Runoff     Runoff     Runoff      Runoff   Runoff   Coeff
  Subcatchment                 mm         mm         mm         mm         mm         mm         mm    10^6 ltr      CMS
  ------------------------------------------------------------------------------------------------------------------------------
  SC01                      13.77       0.00       0.00       0.00      13.70       0.00      13.70        4.52     1.18   0.995
  SC02                      15.04       0.00       0.00       0.00      14.96       0.00      14.96        3.40     0.69   0.995
  SC03                      13.20       0.00       0.00       0.00      13.16       0.00      13.16        2.37     0.58   0.997
  SC04                      15.04       0.00       0.00       0.00      14.89       0.00      14.89        1.03     0.17   0.990
  SC05                      13.77       0.00       0.00       0.00      13.69       0.00      13.69        2.14     0.54   0.994
  SC06                       9.15       0.00       0.00       0.00       8.94       0.00       8.94        2.91     0.35   0.977
  SC07                      15.04       0.00       0.00       0.00      14.89       0.00      14.89        0.71     0.12   0.990
  SC08                      13.20       0.00       0.00       0.00      13.11       0.00      13.11        3.67     0.56   0.993
  SC09                       9.15       0.00       0.00       0.00       9.02       0.00       9.02        0.62     0.09   0.985
  SC010                     13.77       0.00       0.00       0.00      13.67       0.00      13.67        1.61     0.37   0.993
  
  
  ******************
  Node Depth Summary
  ******************
  
  ---------------------------------------------------------------------------------
                                 Average  Maximum  Maximum  Time of Max    Reported
                                   Depth    Depth      HGL   Occurrence   Max Depth
  Node                 Type       Meters   Meters   Meters  days hr:min      Meters
  ---------------------------------------------------------------------------------
  J1                   JUNCTION     0.06     0.24    34.24     0  14:51        0.24
  J3                   JUNCTION     0.11     0.17    18.17     0  16:19        0.17
  CSO7                 JUNCTION     0.11     1.20    35.20     0  14:15        1.20
  J5                   JUNCTION     0.05     0.16    32.16     0  14:42        0.16
  CSO9                 JUNCTION     0.08     1.09    41.09     0  15:31        1.02
  J8                   JUNCTION     0.08     0.22    36.22     0  15:32        0.22
  CSO8                 JUNCTION     0.12     2.00    34.00     0  13:50        2.00
  J10                  JUNCTION     0.07     0.28    29.28     0  13:53        0.28
  J13                  JUNCTION     0.05     0.21    29.21     0  14:21        0.21
  J15                  JUNCTION     0.17     0.42    15.42     0  14:53        0.41
  J16                  JUNCTION     0.05     0.25    30.25     0  14:51        0.25
  CSO10                JUNCTION     0.10     1.00    31.00     0  14:06        1.00
  J12                  JUNCTION     0.34     1.02    27.02     0  16:02        1.02
  J4                   JUNCTION     0.11     1.42    34.42     0  14:16        0.76
  J6                   JUNCTION     0.07     0.12    25.12     0  16:17        0.12
  J2                   JUNCTION     0.05     0.08    25.08     0  15:40        0.08
  J19                  JUNCTION     0.13     0.17     8.17     0  14:19        0.17
  J9                   JUNCTION     0.10     0.16    29.16     0  17:05        0.16
  J14                  JUNCTION     0.13     0.19    20.19     0  19:17        0.19
  J17                  JUNCTION     0.08     0.15    20.15     0  16:10        0.15
  J7                   JUNCTION     0.06     0.18    39.18     0  15:32        0.18
  J11                  JUNCTION     0.07     0.29    31.29     0  14:03        0.29
  J18                  JUNCTION     0.04     0.16    29.16     0  15:02        0.16
  Out_to_WWTP          OUTFALL      0.13     0.17     6.17     0  14:18        0.17
  T5                   STORAGE      2.00     5.00    32.00     0  14:49        5.00
  T4                   STORAGE      1.11     4.62    31.62     0  16:15        4.62
  T6                   STORAGE      1.15     4.91    35.91     0  17:03        4.91
  T3                   STORAGE      2.09     5.00    27.00     0  16:02        5.00
  T2                   STORAGE      1.12     4.55    25.55     0  16:09        4.55
  T1                   STORAGE      2.47     5.00    15.00     0  14:18        5.00
  
  
  *******************
  Node Inflow Summary
  *******************
  
  -------------------------------------------------------------------------------------------------
                                  Maximum  Maximum                  Lateral       Total        Flow
                                  Lateral    Total  Time of Max      Inflow      Inflow     Balance
                                   Inflow   Inflow   Occurrence      Volume      Volume       Error
  Node                 Type           CMS      CMS  days hr:min    10^6 ltr    10^6 ltr     Percent
  -------------------------------------------------------------------------------------------------
  J1                   JUNCTION     0.558    0.558     0  14:51        3.23        3.23      -0.030
  J3                   JUNCTION     0.000    0.305     0  16:17           0        12.9       0.326
  CSO7                 JUNCTION     0.125    0.125     0  14:41        1.27        1.27       0.014
  J5                   JUNCTION     0.171    0.243     0  14:41        1.28        2.48      -0.024
  CSO9                 JUNCTION     0.092    0.092     0  15:31           1           1      -0.005
  J8                   JUNCTION     0.377    0.456     0  15:31        4.74        5.75      -0.027
  CSO8                 JUNCTION     0.573    0.573     0  14:01        4.12        4.12      -0.031
  J10                  JUNCTION     0.599    0.896     0  14:01        3.12        7.22      -0.123
  J13                  JUNCTION     0.704    0.704     0  14:16        4.31        4.31      -0.195
  J15                  JUNCTION     0.000    1.673     0  14:51           0        24.4       0.391
  J16                  JUNCTION     1.197    1.197     0  14:51         5.6         5.6      -0.067
  CSO10                JUNCTION     0.378    0.378     0  14:51        1.88        1.88      -0.017
  J12                  JUNCTION     0.000    0.896     0  14:02           0        12.9       0.354
  J4                   JUNCTION     0.000    0.081     0  14:15           0        1.21       0.074
  J6                   JUNCTION     0.000    0.076     0  16:15           0        2.46       0.096
  J2                   JUNCTION     0.000    0.039     0  14:49           0        1.79       0.260
  J19                  JUNCTION     0.000    0.271     0  14:18           0        14.2       0.089
  J9                   JUNCTION     0.000    0.173     0  17:03           0        5.72       0.084
  J14                  JUNCTION     0.000    0.190     0  16:02           0        8.66       0.111
  J17                  JUNCTION     0.000    0.134     0  16:09           0        4.21       0.149
  J7                   JUNCTION     0.000    0.092     0  15:31           0           1       0.114
  J11                  JUNCTION     0.000    0.485     0  14:03           0         4.1       0.049
  J18                  JUNCTION     0.000    0.202     0  15:02           0         1.8      -0.031
  Out_to_WWTP          OUTFALL      0.000    0.271     0  14:19           0        14.2       0.000
  T5                   STORAGE      0.000    0.518     0  14:51           0        3.23       9.188
  T4                   STORAGE      0.000    0.233     0  14:42           0        2.48       0.366
  T6                   STORAGE      0.000    0.439     0  15:32           0        5.75       0.217
  T3                   STORAGE      0.000    0.871     0  14:04           0        12.9       9.842
  T2                   STORAGE      0.000    0.642     0  14:21           0        4.32       1.127
  T1                   STORAGE      0.000    1.518     0  14:53           0        24.3       3.508
  
  
  **********************
  Node Surcharge Summary
  **********************
  
  Surcharging occurs when water rises above the top of the highest conduit.
  ---------------------------------------------------------------------
                                               Max. Height   Min. Depth
                                   Hours       Above Crown    Below Rim
  Node                 Type      Surcharged         Meters       Meters
  ---------------------------------------------------------------------
  CSO7                 JUNCTION        0.86          0.945        0.000
  CSO9                 JUNCTION        0.12          0.776        0.906
  CSO8                 JUNCTION        0.93          1.547        0.000
  CSO10                JUNCTION        0.52          0.560        0.000
  J4                   JUNCTION        0.80          1.116        0.584
  
  
  *********************
  Node Flooding Summary
  *********************
  
  Flooding refers to all water that overflows a node, whether it ponds or not.
  --------------------------------------------------------------------------
                                                             Total   Maximum
                                 Maximum   Time of Max       Flood    Ponded
                        Hours       Rate    Occurrence      Volume     Depth
  Node                 Flooded       CMS   days hr:min    10^6 ltr    Meters
  --------------------------------------------------------------------------
  CSO7                    0.68     0.053      0  14:41       0.064     0.000
  CSO8                    0.11     0.093      0  13:51       0.015     0.000
  CSO10                   0.34     0.176      0  14:51       0.080     0.000
  T5                      3.03     0.478      0  14:51       0.897     0.000
  T3                      2.13     0.432      0  16:05       0.942     0.000
  T1                      9.12     1.248      0  14:53       8.629     0.000
  
  
  **********************
  Storage Volume Summary
  **********************
  
  --------------------------------------------------------------------------------------------------
                         Average     Avg  Evap Exfil       Maximum     Max    Time of Max    Maximum
                          Volume    Pcnt  Pcnt  Pcnt        Volume    Pcnt     Occurrence    Outflow
  Storage Unit           1000 m3    Full  Loss  Loss       1000 m3    Full    days hr:min        CMS
  --------------------------------------------------------------------------------------------------
  T5                       0.200      40     0     0         0.500     100       0  14:49      0.039
  T4                       0.111      22     0     0         0.462      92       0  16:15      0.076
  T6                       0.138      23     0     0         0.589      98       0  17:03      0.173
  T3                       1.084      42     0     0         2.600     100       0  16:02      0.190
  T2                       0.225      22     0     0         0.910      91       0  16:09      0.134
  T1                       0.345      49     0     0         0.700     100       0  14:18      0.271
  
  
  ***********************
  Outfall Loading Summary
  ***********************
  
  -----------------------------------------------------------
                         Flow       Avg       Max       Total
                         Freq      Flow      Flow      Volume
  Outfall Node           Pcnt       CMS       CMS    10^6 ltr
  -----------------------------------------------------------
  Out_to_WWTP           99.43     0.167     0.271      14.185
  -----------------------------------------------------------
  System                99.43     0.167     0.271      14.185
  
  
  ********************
  Link Flow Summary
  ********************
  
  -----------------------------------------------------------------------------
                                 Maximum  Time of Max   Maximum    Max/    Max/
                                  |Flow|   Occurrence   |Veloc|    Full    Full
  Link                 Type          CMS  days hr:min     m/sec    Flow   Depth
  -----------------------------------------------------------------------------
  C1                   CONDUIT     0.039     0  15:40      0.75    0.01    0.12
  C6                   CONDUIT     0.072     0  14:42      1.28    1.14    0.77
  C2                   CONDUIT     0.076     0  16:17      1.44    0.09    0.24
  C9                   CONDUIT     0.083     0  15:32      1.14    0.28    0.40
  C16                  CONDUIT     0.471     0  14:03      1.74    0.05    0.14
  C3                   CONDUIT     0.190     0  16:05      2.07    0.07    0.18
  C19                  CONDUIT     0.134     0  16:10      1.18    0.05    0.28
  C11                  CONDUIT     0.305     0  16:19      1.85    0.02    0.14
  C20                  CONDUIT     1.100     0  14:51      3.26    0.03    0.17
  C22                  CONDUIT     0.202     0  15:02      1.42    0.09    0.36
  C12                  CONDUIT     0.173     0  17:05      0.92    0.01    0.30
  C17                  CONDUIT     0.838     0  13:53      3.16    0.04    0.30
  C10                  CONDUIT     0.439     0  15:32      1.27    0.05    0.57
  C13                  CONDUIT     0.871     0  14:04      1.68    0.05    0.75
  C18                  CONDUIT     0.642     0  14:21      2.33    0.02    0.55
  C23                  CONDUIT     1.518     0  14:53      1.55    0.17    0.64
  C4                   CONDUIT     0.518     0  14:51      1.57    0.13    0.62
  C7                   CONDUIT     0.233     0  14:42      1.51    0.06    0.58
  C14                  CONDUIT     0.271     0  14:19      2.08    0.02    0.09
  C5                   CONDUIT     0.081     0  14:15      1.58    1.39    1.00
  C8                   CONDUIT     0.092     0  15:31      1.39    1.16    0.79
  C15                  CONDUIT     0.485     0  14:03      3.57    1.54    0.82
  C21                  CONDUIT     0.202     0  15:02      1.86    1.16    0.69
  V4                   ORIFICE     0.076     0  16:15                      1.00
  V5                   ORIFICE     0.039     0  14:49                      1.00
  V1                   ORIFICE     0.271     0  14:18                      1.00
  V6                   ORIFICE     0.173     0  17:03                      1.00
  V3                   ORIFICE     0.190     0  16:02                      1.00
  V2                   ORIFICE     0.134     0  16:09                      1.00
  
  
  ***************************
  Flow Classification Summary
  ***************************
  
  -------------------------------------------------------------------------------------
                      Adjusted    ---------- Fraction of Time in Flow Class ---------- 
                       /Actual         Up    Down  Sub   Sup   Up    Down  Norm  Inlet 
  Conduit               Length    Dry  Dry   Dry   Crit  Crit  Crit  Crit  Ltd   Ctrl  
  -------------------------------------------------------------------------------------
  C1                      1.00   0.00  0.00  0.00  0.96  0.04  0.00  0.00  0.97  0.00
  C6                      1.00   0.00  0.00  0.00  0.06  0.94  0.00  0.00  0.00  0.00
  C2                      1.00   0.00  0.00  0.00  0.28  0.71  0.00  0.00  0.96  0.00
  C9                      1.00   0.00  0.00  0.00  1.00  0.00  0.00  0.00  1.00  0.00
  C16                     1.00   0.00  0.02  0.00  0.66  0.31  0.00  0.00  0.63  0.00
  C3                      1.00   0.00  0.00  0.00  0.04  0.96  0.00  0.00  0.04  0.00
  C19                     1.00   0.00  0.00  0.00  0.87  0.13  0.00  0.00  0.99  0.00
  C11                     1.00   0.00  0.00  0.00  0.10  0.89  0.00  0.00  1.00  0.00
  C20                     1.00   0.00  0.00  0.00  0.83  0.17  0.00  0.00  0.99  0.00
  C22                     1.00   0.00  0.00  0.00  0.98  0.02  0.00  0.00  1.00  0.00
  C12                     1.00   0.00  0.00  0.00  0.54  0.46  0.00  0.00  1.00  0.00
  C17                     1.00   0.00  0.00  0.00  0.53  0.47  0.00  0.00  0.98  0.00
  C10                     1.00   0.00  0.00  0.00  0.95  0.05  0.00  0.00  0.96  0.00
  C13                     1.00   0.00  0.00  0.00  0.94  0.06  0.00  0.00  0.60  0.00
  C18                     1.00   0.00  0.00  0.00  0.74  0.26  0.00  0.00  0.97  0.00
  C23                     1.00   0.00  0.00  0.00  0.96  0.04  0.00  0.00  0.96  0.00
  C4                      1.00   0.00  0.00  0.00  0.96  0.04  0.00  0.00  0.97  0.00
  C7                      1.00   0.00  0.00  0.00  0.87  0.13  0.00  0.00  0.97  0.00
  C14                     1.00   0.00  0.00  0.00  0.00  1.00  0.00  0.00  0.47  0.00
  C5                      1.00   0.00  0.00  0.00  0.94  0.06  0.00  0.00  0.94  0.00
  C8                      1.00   0.00  0.00  0.00  0.14  0.86  0.00  0.00  0.00  0.00
  C15                     1.00   0.02  0.00  0.00  0.00  0.98  0.00  0.00  0.00  0.00
  C21                     1.00   0.00  0.00  0.00  0.00  1.00  0.00  0.00  0.00  0.00
  
  
  *************************
  Conduit Surcharge Summary
  *************************
  
  ----------------------------------------------------------------------------
                                                           Hours        Hours 
                         --------- Hours Full --------   Above Full   Capacity
  Conduit                Both Ends  Upstream  Dnstream   Normal Flow   Limited
  ----------------------------------------------------------------------------
  C6                          0.01      0.80      0.01      0.70         0.01
  C10                         0.01      0.01      5.81      0.01         0.01
  C13                         0.01      0.01      9.51      0.01         0.01
  C18                         0.01      0.01      5.73      0.01         0.01
  C23                         0.01      0.01     10.81      0.01         0.01
  C4                          0.01      0.01     10.95      0.01         0.01
  C7                          0.01      0.01      7.40      0.01         0.01
  C5                          0.83      0.86      0.95      1.02         0.81
  C8                          0.01      0.12      0.01      0.11         0.01
  C15                         0.01      0.93      0.01      1.20         0.01
  C21                         0.01      0.52      0.01      0.46         0.01
  

  Analysis begun on:  Tue Sep 21 00:38:29 2021
  Analysis ended on:  Tue Sep 21 00:38:29 2021
  Total elapsed time: < 1 sec