
  EPA STORM WATER MANAGEMENT MODEL - VERSION 5.1 (Build 5.3.0.dev0)
  --------------------------------------------------------------

  WARNING 09: time series interval greater than recording interval for Rain Gage RG1
  WARNING 09: time series interval greater than recording interval for Rain Gage RG2
  WARNING 09: time series interval greater than recording interval for Rain Gage RG3
  WARNING 09: time series interval greater than recording interval for Rain Gage RG4
  
  *********************************************************
  NOTE: The summary statistics displayed in this report are
  based on results found at every computational time step,  
  not just on results from each reporting time step.
  *********************************************************
  
  ****************
  Analysis Options
  ****************
  Flow Units ............... CMS
  Process Models:
    Rainfall/Runoff ........ YES
    RDII ................... NO
    Snowmelt ............... NO
    Groundwater ............ NO
    Flow Routing ........... YES
    Ponding Allowed ........ YES
    Water Quality .......... NO
  Infiltration Method ...... HORTON
  Flow Routing Method ...... DYNWAVE
  Surcharge Method ......... EXTRAN
  Starting Date ............ 08/28/2015 00:00:00
  Ending Date .............. 08/28/2015 23:40:00
  Antecedent Dry Days ...... 0.0
  Report Time Step ......... 00:01:00
  Wet Time Step ............ 00:01:00
  Dry Time Step ............ 00:01:00
  Routing Time Step ........ 5.00 sec
  Variable Time Step ....... YES
  Maximum Trials ........... 8
  Number of Threads ........ 1
  Head Tolerance ........... 0.001500 m
  
  
  **************************        Volume         Depth
  Runoff Quantity Continuity     hectare-m            mm
  **************************     ---------       -------
  Total Precipitation ......         1.972        10.943
  Evaporation Loss .........         0.000         0.000
  Infiltration Loss ........         0.000         0.000
  Surface Runoff ...........         1.958        10.863
  Final Storage ............         0.021         0.116
  Continuity Error (%) .....        -0.331
  
  
  **************************        Volume        Volume
  Flow Routing Continuity        hectare-m      10^6 ltr
  **************************     ---------     ---------
  Dry Weather Inflow .......         0.758         7.576
  Wet Weather Inflow .......         1.958        19.576
  Groundwater Inflow .......         0.000         0.000
  RDII Inflow ..............         0.000         0.000
  External Inflow ..........         0.000         0.000
  External Outflow .........         1.484        14.841
  Flooding Loss ............         0.857         8.566
  Evaporation Loss .........         0.000         0.000
  Exfiltration Loss ........         0.000         0.000
  Initial Stored Volume ....         0.000         0.000
  Final Stored Volume ......         0.321         3.210
  Continuity Error (%) .....         1.970
  
  
  *************************
  Highest Continuity Errors
  *************************
  Node T5 (8.29%)
  Node T3 (6.70%)
  Node T1 (2.88%)
  
  
  ***************************
  Time-Step Critical Elements
  ***************************
  None
  
  
  ********************************
  Highest Flow Instability Indexes
  ********************************
  Link C13 (1)
  
  
  *************************
  Routing Time Step Summary
  *************************
  Minimum Time Step           :     4.50 sec
  Average Time Step           :     5.00 sec
  Maximum Time Step           :     5.00 sec
  Percent in Steady State     :     0.00
  Average Iterations per Step :     2.10
  Percent Not Converging      :     0.21
  
  
  ***************************
  Subcatchment Runoff Summary
  ***************************
  
  ------------------------------------------------------------------------------------------------------------------------------
                            Total      Total      Total      Total     Imperv       Perv      Total       Total     Peak  Runoff
                           Precip      Runon       Evap      Infil     Runoff     Runoff     Runoff      Runoff   Runoff   Coeff
  Subcatchment                 mm         mm         mm         mm         mm         mm         mm    10^6 ltr      CMS
  ------------------------------------------------------------------------------------------------------------------------------
  SC01                       7.53       0.00       0.00       0.00       7.46       0.00       7.46        2.46     0.74   0.991
  SC02                       9.55       0.00       0.00       0.00       9.47       0.00       9.47        2.15     0.80   0.992
  SC03                      15.41       0.00       0.00       0.00      15.48       0.00      15.48        2.79     3.89   1.005
  SC04                       9.55       0.00       0.00       0.00       9.41       0.00       9.41        0.65     0.18   0.985
  SC05                       7.53       0.00       0.00       0.00       7.45       0.00       7.45        1.16     0.34   0.990
  SC06                      12.17       0.00       0.00       0.00      12.03       0.00      12.03        3.92     1.26   0.988
  SC07                       9.55       0.00       0.00       0.00       9.41       0.00       9.41        0.45     0.13   0.985
  SC08                      15.41       0.00       0.00       0.00      15.33       0.00      15.33        4.29     3.77   0.995
  SC09                      12.17       0.00       0.00       0.00      12.08       0.00      12.08        0.83     0.32   0.993
  SC010                      7.53       0.00       0.00       0.00       7.44       0.00       7.44        0.87     0.24   0.988
  
  
  ******************
  Node Depth Summary
  ******************
  
  ---------------------------------------------------------------------------------
                                 Average  Maximum  Maximum  Time of Max    Reported
                                   Depth    Depth      HGL   Occurrence   Max Depth
  Node                 Type       Meters   Meters   Meters  days hr:min      Meters
  ---------------------------------------------------------------------------------
  J1                   JUNCTION     0.05     0.19    34.19     0  10:17        0.19
  J3                   JUNCTION     0.11     0.17    18.17     0  11:26        0.17
  CSO7                 JUNCTION     0.10     1.20    35.20     0  09:46        1.20
  J5                   JUNCTION     0.04     0.17    32.17     0  10:02        0.17
  CSO9                 JUNCTION     0.13     2.00    42.00     0  09:55        2.00
  J8                   JUNCTION     0.07     0.38    36.38     0  10:21        0.38
  CSO8                 JUNCTION     0.12     2.00    34.00     0  09:50        2.00
  J10                  JUNCTION     0.06     0.58    29.58     0  09:56        0.58
  J13                  JUNCTION     0.04     0.23    29.23     0  09:56        0.23
  J15                  JUNCTION     0.15     0.35    15.35     0  10:19        0.35
  J16                  JUNCTION     0.04     0.20    30.20     0  10:17        0.20
  CSO10                JUNCTION     0.07     1.00    31.00     0  09:51        1.00
  J12                  JUNCTION     0.35     0.99    26.99     0  13:20        0.99
  J4                   JUNCTION     0.10     1.39    34.39     0  09:50        0.83
  J6                   JUNCTION     0.06     0.11    25.11     0  11:04        0.11
  J2                   JUNCTION     0.06     0.08    25.08     0  11:22        0.08
  J19                  JUNCTION     0.13     0.17     8.17     0  10:11        0.17
  J9                   JUNCTION     0.09     0.16    29.16     0  11:34        0.16
  J14                  JUNCTION     0.13     0.19    20.19     0  13:59        0.19
  J17                  JUNCTION     0.07     0.14    20.14     0  10:48        0.14
  J7                   JUNCTION     0.05     0.23    39.23     0  10:38        0.23
  J11                  JUNCTION     0.06     0.30    31.30     0  10:16        0.30
  J18                  JUNCTION     0.03     0.16    29.16     0  10:18        0.16
  Out_to_WWTP          OUTFALL      0.13     0.17     6.17     0  20:27        0.17
  T5                   STORAGE      2.23     4.84    31.84     0  11:20        4.84
  T4                   STORAGE      0.70     3.44    30.44     0  11:03        3.44
  T6                   STORAGE      1.09     5.00    36.00     0  10:21        5.00
  T3                   STORAGE      2.58     4.99    26.99     0  13:25        4.99
  T2                   STORAGE      0.70     3.63    24.63     0  10:47        3.63
  T1                   STORAGE      2.95     5.00    15.00     0  10:10        5.00
  
  
  *******************
  Node Inflow Summary
  *******************
  
  -------------------------------------------------------------------------------------------------
                                  Maximum  Maximum                  Lateral       Total        Flow
                                  Lateral    Total  Time of Max      Inflow      Inflow     Balance
                                   Inflow   Inflow   Occurrence      Volume      Volume       Error
  Node                 Type           CMS      CMS  days hr:min    10^6 ltr    10^6 ltr     Percent
  -------------------------------------------------------------------------------------------------
  J1                   JUNCTION     0.359    0.359     0  10:16        2.26        2.26      -0.042
  J3                   JUNCTION     0.000    0.290     0  11:25           0        13.2       0.266
  CSO7                 JUNCTION     0.136    0.136     0  10:01        1.01        1.01       0.018
  J5                   JUNCTION     0.186    0.258     0  10:01       0.897        1.84      -0.024
  CSO9                 JUNCTION     0.329    0.329     0  10:16        1.22        1.22      -0.010
  J8                   JUNCTION     1.290    1.417     0  10:21        5.75        6.71      -0.056
  CSO8                 JUNCTION     3.777    3.777     0  09:56        4.74        4.74      -0.043
  J10                  JUNCTION     3.902    4.345     0  09:56        3.54        6.58      -0.152
  J13                  JUNCTION     0.818    0.818     0  09:56        3.06        3.06      -0.242
  J15                  JUNCTION     0.000    1.197     0  10:17           0        20.9       0.343
  J16                  JUNCTION     0.759    0.759     0  10:16        3.54        3.54      -0.089
  CSO10                JUNCTION     0.242    0.242     0  10:16        1.14        1.14      -0.083
  J12                  JUNCTION     0.000    3.587     0  09:57           0        11.6      -0.005
  J4                   JUNCTION     0.000    0.081     0  09:50           0       0.944       0.094
  J6                   JUNCTION     0.000    0.066     0  11:03           0        1.84       0.015
  J2                   JUNCTION     0.000    0.039     0  11:20           0        1.89       0.212
  J19                  JUNCTION     0.000    0.271     0  10:10           0        14.9       0.075
  J9                   JUNCTION     0.000    0.175     0  10:21           0        5.01      -0.004
  J14                  JUNCTION     0.000    0.189     0  13:25           0        9.44       0.087
  J17                  JUNCTION     0.000    0.119     0  10:47           0        3.06       0.041
  J7                   JUNCTION     0.000    0.127     0  10:38           0       0.961       0.105
  J11                  JUNCTION     0.000    0.487     0  10:16           0        3.05       0.263
  J18                  JUNCTION     0.000    0.202     0  10:18           0        1.14      -0.054
  Out_to_WWTP          OUTFALL      0.000    0.271     0  10:12           0        14.8       0.000
  T5                   STORAGE      0.000    0.328     0  10:17           0        2.26       9.041
  T4                   STORAGE      0.000    0.246     0  10:02           0        1.84       0.016
  T6                   STORAGE      0.000    1.343     0  10:22           0        6.71      -0.081
  T3                   STORAGE      0.000    2.957     0  09:58           0        11.6       7.178
  T2                   STORAGE      0.000    0.752     0  09:56           0        3.07       0.241
  T1                   STORAGE      0.000    1.086     0  10:19           0        20.8       2.961
  
  
  **********************
  Node Surcharge Summary
  **********************
  
  Surcharging occurs when water rises above the top of the highest conduit.
  ---------------------------------------------------------------------
                                               Max. Height   Min. Depth
                                   Hours       Above Crown    Below Rim
  Node                 Type      Surcharged         Meters       Meters
  ---------------------------------------------------------------------
  CSO7                 JUNCTION        0.87          0.945        0.000
  CSO9                 JUNCTION        0.94          1.682        0.000
  CSO8                 JUNCTION        0.85          1.547        0.000
  CSO10                JUNCTION        0.31          0.560        0.000
  J4                   JUNCTION        0.82          1.094        0.606
  
  
  *********************
  Node Flooding Summary
  *********************
  
  Flooding refers to all water that overflows a node, whether it ponds or not.
  --------------------------------------------------------------------------
                                                             Total   Maximum
                                 Maximum   Time of Max       Flood    Ponded
                        Hours       Rate    Occurrence      Volume     Depth
  Node                 Flooded       CMS   days hr:min    10^6 ltr    Meters
  --------------------------------------------------------------------------
  CSO7                    0.68     0.064      0  10:01       0.067     0.000
  CSO9                    0.71     0.202      0  10:16       0.255     0.000
  CSO8                    0.63     3.291      0  09:56       1.689     0.000
  CSO10                   0.07     0.065      0  10:16       0.004     0.000
  T6                      1.24     1.167      0  10:22       1.706     0.000
  T1                      9.88     0.816      0  10:19       4.845     0.000
  
  
  **********************
  Storage Volume Summary
  **********************
  
  --------------------------------------------------------------------------------------------------
                         Average     Avg  Evap Exfil       Maximum     Max    Time of Max    Maximum
                          Volume    Pcnt  Pcnt  Pcnt        Volume    Pcnt     Occurrence    Outflow
  Storage Unit           1000 m3    Full  Loss  Loss       1000 m3    Full    days hr:min        CMS
  --------------------------------------------------------------------------------------------------
  T5                       0.223      45     0     0         0.484      97       0  11:20      0.039
  T4                       0.070      14     0     0         0.344      69       0  11:03      0.066
  T6                       0.131      22     0     0         0.600     100       0  10:21      0.175
  T3                       1.344      52     0     0         2.595     100       0  13:25      0.274
  T2                       0.140      14     0     0         0.726      73       0  10:47      0.119
  T1                       0.412      59     0     0         0.700     100       0  10:10      0.271
  
  
  ***********************
  Outfall Loading Summary
  ***********************
  
  -----------------------------------------------------------
                         Flow       Avg       Max       Total
                         Freq      Flow      Flow      Volume
  Outfall Node           Pcnt       CMS       CMS    10^6 ltr
  -----------------------------------------------------------
  Out_to_WWTP           99.43     0.175     0.271      14.841
  -----------------------------------------------------------
  System                99.43     0.175     0.271      14.841
  
  
  ********************
  Link Flow Summary
  ********************
  
  -----------------------------------------------------------------------------
                                 Maximum  Time of Max   Maximum    Max/    Max/
                                  |Flow|   Occurrence   |Veloc|    Full    Full
  Link                 Type          CMS  days hr:min     m/sec    Flow   Depth
  -----------------------------------------------------------------------------
  C1                   CONDUIT     0.039     0  11:22      0.77    0.01    0.12
  C6                   CONDUIT     0.072     0  10:02      1.29    1.14    0.78
  C2                   CONDUIT     0.066     0  11:04      1.33    0.08    0.23
  C9                   CONDUIT     0.127     0  10:38      1.22    0.43    0.61
  C16                  CONDUIT     0.493     0  10:22      1.81    0.05    0.22
  C3                   CONDUIT     0.189     0  13:25      2.09    0.07    0.18
  C19                  CONDUIT     0.119     0  10:49      1.15    0.04    0.24
  C11                  CONDUIT     0.290     0  11:26      1.86    0.01    0.13
  C20                  CONDUIT     0.686     0  10:17      3.22    0.02    0.14
  C22                  CONDUIT     0.194     0  10:18      1.51    0.09    0.32
  C12                  CONDUIT     0.175     0  11:34      0.86    0.01    0.29
  C17                  CONDUIT     3.544     0  09:57      5.15    0.18    0.28
  C10                  CONDUIT     1.343     0  10:22      1.66    0.14    0.63
  C13                  CONDUIT     2.957     0  09:58      2.78    0.17    0.75
  C18                  CONDUIT     0.752     0  09:56      1.74    0.03    0.56
  C23                  CONDUIT     1.086     0  10:19      0.95    0.12    0.62
  C4                   CONDUIT     0.328     0  10:17      1.13    0.08    0.60
  C7                   CONDUIT     0.246     0  10:02      0.90    0.06    0.58
  C14                  CONDUIT     0.271     0  10:12      2.08    0.02    0.09
  C5                   CONDUIT     0.081     0  09:50      1.57    1.38    1.00
  C8                   CONDUIT     0.127     0  10:38      1.91    1.60    0.86
  C15                  CONDUIT     0.487     0  10:16      3.86    1.55    0.83
  C21                  CONDUIT     0.202     0  10:18      1.88    1.16    0.68
  V4                   ORIFICE     0.066     0  11:03                      1.00
  V5                   ORIFICE     0.039     0  11:20                      1.00
  V1                   ORIFICE     0.271     0  10:10                      1.00
  V6                   ORIFICE     0.175     0  10:21                      1.00
  V3                   ORIFICE     0.189     0  13:25                      1.00
  V2                   ORIFICE     0.119     0  10:47                      1.00
  
  
  ***************************
  Flow Classification Summary
  ***************************
  
  -------------------------------------------------------------------------------------
                      Adjusted    ---------- Fraction of Time in Flow Class ---------- 
                       /Actual         Up    Down  Sub   Sup   Up    Down  Norm  Inlet 
  Conduit               Length    Dry  Dry   Dry   Crit  Crit  Crit  Crit  Ltd   Ctrl  
  -------------------------------------------------------------------------------------
  C1                      1.00   0.00  0.00  0.00  0.91  0.09  0.00  0.00  0.97  0.00
  C6                      1.00   0.00  0.00  0.00  0.05  0.95  0.00  0.00  0.00  0.00
  C2                      1.00   0.00  0.00  0.00  0.46  0.54  0.00  0.00  0.97  0.00
  C9                      1.00   0.00  0.00  0.00  1.00  0.00  0.00  0.00  1.00  0.00
  C16                     1.00   0.00  0.25  0.00  0.45  0.30  0.00  0.00  0.37  0.00
  C3                      1.00   0.00  0.00  0.00  0.04  0.96  0.00  0.00  0.08  0.00
  C19                     1.00   0.00  0.00  0.00  0.97  0.03  0.00  0.00  1.00  0.00
  C11                     1.00   0.00  0.00  0.00  0.09  0.91  0.00  0.00  1.00  0.00
  C20                     1.00   0.00  0.00  0.00  0.90  0.10  0.00  0.00  0.99  0.00
  C22                     1.00   0.00  0.00  0.00  0.97  0.03  0.00  0.00  1.00  0.00
  C12                     1.00   0.00  0.00  0.00  0.59  0.41  0.00  0.00  0.91  0.00
  C17                     1.00   0.00  0.00  0.00  0.74  0.26  0.00  0.00  0.98  0.00
  C10                     1.00   0.00  0.00  0.00  0.72  0.28  0.00  0.00  0.98  0.00
  C13                     1.00   0.00  0.00  0.00  0.75  0.25  0.00  0.00  0.48  0.00
  C18                     1.00   0.00  0.00  0.00  0.52  0.48  0.00  0.00  0.98  0.00
  C23                     1.00   0.00  0.00  0.00  0.80  0.20  0.00  0.00  0.96  0.00
  C4                      1.00   0.00  0.00  0.00  0.82  0.18  0.00  0.00  0.98  0.00
  C7                      1.00   0.00  0.00  0.00  0.68  0.32  0.00  0.00  0.83  0.00
  C14                     1.00   0.00  0.00  0.00  0.00  1.00  0.00  0.00  0.21  0.00
  C5                      1.00   0.00  0.00  0.00  0.95  0.05  0.00  0.00  0.95  0.00
  C8                      1.00   0.00  0.00  0.00  0.26  0.74  0.00  0.00  0.00  0.00
  C15                     1.00   0.25  0.00  0.00  0.00  0.75  0.00  0.00  0.01  0.00
  C21                     1.00   0.00  0.00  0.00  0.01  0.99  0.00  0.00  0.00  0.00
  
  
  *************************
  Conduit Surcharge Summary
  *************************
  
  ----------------------------------------------------------------------------
                                                           Hours        Hours 
                         --------- Hours Full --------   Above Full   Capacity
  Conduit                Both Ends  Upstream  Dnstream   Normal Flow   Limited
  ----------------------------------------------------------------------------
  C6                          0.01      0.82      0.01      0.72         0.01
  C10                         0.01      0.01      5.74      0.01         0.01
  C13                         0.01      0.01     13.62      0.01         0.01
  C18                         0.01      0.01      3.51      0.01         0.01
  C23                         0.01      0.01     14.17      0.01         0.01
  C4                          0.01      0.01     14.23      0.01         0.01
  C7                          0.01      0.01      5.80      0.01         0.01
  C5                          0.84      0.87      0.95      0.87         0.82
  C8                          0.01      0.94      0.01      0.95         0.01
  C15                         0.01      0.85      0.01      0.87         0.01
  C21                         0.01      0.31      0.01      0.24         0.01
  

  Analysis begun on:  Tue Sep 21 00:48:37 2021
  Analysis ended on:  Tue Sep 21 00:48:38 2021
  Total elapsed time: 00:00:01