
  EPA STORM WATER MANAGEMENT MODEL - VERSION 5.1 (Build 5.3.0.dev0)
  --------------------------------------------------------------

  WARNING 04: minimum elevation drop used for Conduit WS02004404WS02004405
  WARNING 03: negative offset ignored for Link YS02001904YS02001907
  
  *********************************************************
  NOTE: The summary statistics displayed in this report are
  based on results found at every computational time step,  
  not just on results from each reporting time step.
  *********************************************************
  
  ****************
  Analysis Options
  ****************
  Flow Units ............... LPS
  Process Models:
    Rainfall/Runoff ........ YES
    RDII ................... NO
    Snowmelt ............... NO
    Groundwater ............ NO
    Flow Routing ........... YES
    Ponding Allowed ........ NO
    Water Quality .......... YES
  Infiltration Method ...... HORTON
  Flow Routing Method ...... DYNWAVE
  Surcharge Method ......... EXTRAN
  Starting Date ............ 08/28/2015 08:00:00
  Ending Date .............. 08/28/2015 15:50:00
  Antecedent Dry Days ...... 8.0
  Report Time Step ......... 00:01:00
  Wet Time Step ............ 00:01:00
  Dry Time Step ............ 00:01:00
  Routing Time Step ........ 5.00 sec
  Variable Time Step ....... YES
  Maximum Trials ........... 8
  Number of Threads ........ 4
  Head Tolerance ........... 0.001500 m
  
  
  **************************        Volume         Depth
  Runoff Quantity Continuity     hectare-m            mm
  **************************     ---------       -------
  Total Precipitation ......         6.144        13.452
  Evaporation Loss .........         0.000         0.000
  Infiltration Loss ........         1.064         2.328
  Surface Runoff ...........         4.147         9.079
  Final Storage ............         0.935         2.047
  Continuity Error (%) .....        -0.020
  
  
  **************************           COD            SS            TN            TP         NH4-N
  Runoff Quality Continuity             kg            kg            kg            kg            kg
  **************************    ----------    ----------    ----------    ----------    ----------
  Initial Buildup ..........     41378.656     70582.865      1804.177       168.684      1032.807
  Surface Buildup ..........        21.799        40.924         2.400         0.218         1.395
  Wet Deposition ...........         0.000         0.000         0.000         0.000         0.000
  Sweeping Removal .........         0.000         0.000         0.000         0.000         0.000
  Infiltration Loss ........        97.311       184.943         1.849         0.130         0.881
  BMP Removal ..............         0.000         0.000         0.000         0.000         0.000
  Surface Runoff ...........      3769.819      7064.251        72.781         4.964        34.599
  Remaining Buildup ........     37531.916     63371.884      1731.919       163.806       998.709
  Continuity Error (%) .....         0.003         0.004         0.002         0.001         0.001
  
  
  **************************        Volume        Volume
  Flow Routing Continuity        hectare-m      10^6 ltr
  **************************     ---------     ---------
  Dry Weather Inflow .......         0.616         6.165
  Wet Weather Inflow .......         4.145        41.451
  Groundwater Inflow .......         0.000         0.000
  RDII Inflow ..............         0.000         0.000
  External Inflow ..........         0.102         1.024
  External Outflow .........         1.854        18.544
  Flooding Loss ............         2.526        25.258
  Evaporation Loss .........         0.000         0.000
  Exfiltration Loss ........         0.000         0.000
  Initial Stored Volume ....         0.076         0.761
  Final Stored Volume ......         0.663         6.626
  Continuity Error (%) .....        -2.081
  
  
  **************************           COD            SS            TN            TP         NH4-N
  Quality Routing Continuity            kg            kg            kg            kg            kg
  **************************    ----------    ----------    ----------    ----------    ----------
  Dry Weather Inflow .......      1541.201      2465.922       147.955        18.494        92.472
  Wet Weather Inflow .......      3768.958      7062.784        72.762         4.963        34.591
  Groundwater Inflow .......         0.000         0.000         0.000         0.000         0.000
  RDII Inflow ..............         0.000         0.000         0.000         0.000         0.000
  External Inflow ..........       183.418       293.469        17.608         2.201        11.005
  External Outflow .........      2284.998      3941.452       147.474        17.389        89.312
  Flooding Loss ............      2526.303      4701.385        63.522         5.453        33.185
  Exfiltration Loss ........         0.000         0.000         0.000         0.000         0.000
  Mass Reacted .............         0.000         0.000         0.000         0.000         0.000
  Initial Stored Mass ......         0.000         0.000         0.000         0.000         0.000
  Final Stored Mass ........       572.607       993.379        24.714         2.621        14.263
  Continuity Error (%) .....         1.996         1.893         1.097         0.766         0.947
  
  
  *************************
  Highest Continuity Errors
  *************************
  Node HS02004842 (13.41%)
  Node YS02001884 (10.73%)
  Node JK-storage (-9.66%)
  Node HS02004817 (2.53%)
  Node YSB1171 (2.46%)
  
  
  ***************************
  Time-Step Critical Elements
  ***************************
  Link WS02006252WS02006251 (66.61%)
  Link WS02006280WS02006229 (11.32%)
  Link WS02006238WS02006235 (6.06%)
  Link YS02001793JiankangQianchi (3.19%)
  Link YS02006556YS02006558 (2.97%)
  
  
  ********************************
  Highest Flow Instability Indexes
  ********************************
  Link WS02006113WS02006111 (51)
  Link YS02163601YS02164001 (34)
  Link YS02163301YS02001633 (33)
  Link YS02001629YS02163301 (33)
  Link YS02001619YS02001622 (33)
  
  
  *************************
  Routing Time Step Summary
  *************************
  Minimum Time Step           :     0.43 sec
  Average Time Step           :     1.22 sec
  Maximum Time Step           :     5.00 sec
  Percent in Steady State     :    -0.00
  Average Iterations per Step :     4.06
  Percent Not Converging      :    15.64
  
  
  ***************************
  Subcatchment Runoff Summary
  ***************************
  
  ------------------------------------------------------------------------------------------------------------------------------
                            Total      Total      Total      Total     Imperv       Perv      Total       Total     Peak  Runoff
                           Precip      Runon       Evap      Infil     Runoff     Runoff     Runoff      Runoff   Runoff   Coeff
  Subcatchment                 mm         mm         mm         mm         mm         mm         mm    10^6 ltr      LPS
  ------------------------------------------------------------------------------------------------------------------------------
  sub0                      13.45       0.00       0.00       0.63      12.47       0.31      12.77        0.01     3.75   0.950
  sub1                      13.45       0.00       0.00       1.12      11.88       0.36      12.24        0.08    25.66   0.910
  sub2                      13.45       0.00       0.00       4.44       8.39       0.53       8.92        0.08    25.29   0.663
  sub3                      13.45       0.00       0.00       4.56       8.35       0.42       8.77        0.20    55.75   0.652
  sub4                      13.45       0.00       0.00       1.22      11.71       0.26      11.97        0.25    65.52   0.890
  sub5                      13.45       0.00       0.00       0.68      12.41       0.26      12.67        0.14    44.76   0.942
  sub7                      13.45       0.00       0.00       0.86      12.18       0.35      12.53        0.04    14.26   0.931
  sub8                      13.45       0.00       0.00       0.87      12.17       0.34      12.50        0.08    26.26   0.930
  sub9                      13.45       0.00       0.00       0.88      12.17       0.33      12.50        0.06    19.64   0.929
  sub10                     13.45       0.00       0.00       0.78      12.29       0.29      12.58        0.14    44.00   0.935
  sub11                     13.45       0.00       0.00       0.77      12.30       0.31      12.61        0.15    48.45   0.938
  sub12                     13.45       0.00       0.00       1.25      11.66       0.50      12.16        0.11    38.10   0.904
  sub14                     13.45       0.00       0.00       0.88      12.16       0.33      12.49        0.12    38.67   0.929
  sub15                     13.45       0.00       0.00       3.37       9.35       0.66      10.01        0.17    57.01   0.744
  sub16                     13.45       0.00       0.00       3.56       8.97       0.88       9.85        0.10    37.63   0.732
  sub17                     13.45       0.00       0.00       3.47       9.10       0.84       9.94        0.09    30.67   0.739
  sub22                     13.45       0.00       0.00       4.98       7.63       0.81       8.43        0.53   184.54   0.627
  sub23                     13.45       0.00       0.00       4.17       8.43       0.81       9.24        0.44   154.22   0.687
  sub60                     13.45       0.00       0.00       1.53       9.85       0.09       9.93        3.01   438.14   0.738
  sub61                     13.45       0.00       0.00       2.16       9.95       0.12      10.07        3.11   536.45   0.749
  sub62                     13.45       0.00       0.00       0.98      10.84       0.10      10.94        3.36   552.35   0.813
  sub63                     13.45       0.00       0.00       3.77       8.69       0.14       8.83        2.67   492.63   0.656
  sub64                     13.45       0.00       0.00       1.93       9.45       0.09       9.54        2.90   416.72   0.709
  sub65                     13.45       0.00       0.00       1.67       9.61       0.08       9.70        2.98   423.09   0.721
  sub66                     13.45       0.00       0.00       3.81       8.10       0.09       8.18        2.51   380.66   0.608
  sub67                     13.45       0.00       0.00       0.95      11.38       0.13      11.51        3.55   679.52   0.856
  sub68                     13.45       0.00       0.00       1.75      10.45       0.13      10.59        3.26   586.26   0.787
  sub69                     13.45       0.00       0.00       1.83      10.79       0.19      10.98        2.57   544.72   0.816
  sub70                     13.45      11.20       0.00       7.51      14.65       0.88      15.52        3.55   494.81   0.630
  sub71                     13.45       0.00       0.00       0.99      10.58       0.09      10.67        2.52   389.24   0.793
  sub72                     13.45       0.00       0.00       0.89       8.56       0.05       8.61        1.75   189.18   0.640
  1                         13.45      15.11       0.00       1.37      16.56       4.63      21.19        4.98   484.42   0.742
  2                         13.45       0.00       0.00       3.02       3.21       1.96       5.17        2.07   340.45   0.384
  
  
  ****************************
  Subcatchment Washoff Summary
  ****************************
  
  ------------------------------------------------------------------------------------------
                                 COD            SS            TN            TP         NH4-N
  Subcatchment                    kg            kg            kg            kg            kg
  ------------------------------------------------------------------------------------------
  sub0                         2.670         5.197         0.046         0.004         0.022
  sub1                        11.241        22.423         0.210         0.015         0.101
  sub2                         6.894        13.384         0.145         0.010         0.067
  sub3                        16.924        32.573         0.350         0.024         0.161
  sub4                        25.772        51.904         0.510         0.031         0.245
  sub5                        25.778        50.682         0.460         0.035         0.223
  sub7                         5.751        11.638         0.108         0.007         0.052
  sub8                         8.581        17.755         0.171         0.010         0.082
  sub9                         7.353        15.005         0.142         0.009         0.068
  sub10                       21.202        42.223         0.389         0.028         0.188
  sub11                       20.657        41.614         0.386         0.026         0.187
  sub12                       17.724        35.094         0.321         0.024         0.155
  sub14                       15.732        31.800         0.298         0.020         0.144
  sub15                       20.231        39.321         0.389         0.028         0.182
  sub16                       13.129        25.518         0.249         0.019         0.117
  sub17                       12.049        23.208         0.222         0.017         0.105
  sub22                       62.582       119.432         1.186         0.090         0.554
  sub23                       36.683        72.439         0.776         0.051         0.357
  sub60                      243.520       456.962         4.842         0.298         2.321
  sub61                      302.151       564.434         5.627         0.386         2.710
  sub62                      313.722       596.076         6.119         0.388         2.938
  sub63                      223.275       410.850         4.468         0.314         2.075
  sub64                      305.877       553.773         5.626         0.410         2.687
  sub65                      313.037       569.066         5.795         0.415         2.772
  sub66                      176.068       321.340         3.608         0.236         1.687
  sub67                      466.222       877.505         8.365         0.616         4.045
  sub68                      332.037       626.413         6.347         0.429         3.034
  sub69                      298.258       568.561         5.590         0.393         2.674
  sub70                      502.897       962.303        10.037         0.699         4.710
  sub71                      206.745       396.330         4.242         0.246         2.030
  sub72                      164.385       293.107         3.069         0.210         1.476
  1                          349.075       671.606         7.102         0.495         3.297
  2                           42.749        75.577         1.214         0.073         0.518
  ------------------------------------------------------------------------------------------
  System                    4570.974      8595.115        88.408         6.057        41.983
  
  
  ******************
  Node Depth Summary
  ******************
  
  ---------------------------------------------------------------------------------
                                 Average  Maximum  Maximum  Time of Max    Reported
                                   Depth    Depth      HGL   Occurrence   Max Depth
  Node                 Type       Meters   Meters   Meters  days hr:min      Meters
  ---------------------------------------------------------------------------------
  WS02001211           JUNCTION     0.77     0.85     5.69     0  03:07        0.85
  WS02001212           JUNCTION     0.47     0.58     5.64     0  03:06        0.58
  WS02001213           JUNCTION     0.71     0.85     5.62     0  03:06        0.85
  WS02003069           JUNCTION     0.49     0.72     5.30     0  03:05        0.72
  WS02003072           JUNCTION     0.56     0.76     5.13     0  03:06        0.76
  WS02003073           JUNCTION     0.34     0.48     4.54     0  03:06        0.48
  WS02003060           JUNCTION     0.44     0.63     5.57     0  03:05        0.63
  WS02003066           JUNCTION     0.23     0.39     5.94     0  03:04        0.39
  WS02003059           JUNCTION     0.76     0.91     5.60     0  03:05        0.91
  WS02003067           JUNCTION     0.58     0.82     6.14     0  03:04        0.82
  WS02004401           JUNCTION     0.68     1.23     7.23     0  03:02        1.23
  WS02004402           JUNCTION     0.71     1.23     7.19     0  03:02        1.22
  WS02004403           JUNCTION     0.73     1.20     7.13     0  03:02        1.19
  WS02004404           JUNCTION     0.81     1.25     7.10     0  03:02        1.24
  WS02004406           JUNCTION     0.81     1.16     6.99     0  03:02        1.16
  WS02004409           JUNCTION     0.49     0.96     6.73     0  03:03        0.96
  WS02004410           JUNCTION     0.51     0.95     6.67     0  03:03        0.95
  WS02004411           JUNCTION     0.53     0.93     6.61     0  03:03        0.93
  WS02004412           JUNCTION     0.55     0.90     6.54     0  03:04        0.90
  WS02004413           JUNCTION     0.71     1.02     6.49     0  03:04        1.02
  WS02004405           JUNCTION     0.80     1.22     7.07     0  03:02        1.21
  WS02006109           JUNCTION     0.77     1.66     8.27     0  03:02        1.64
  WS02006110           JUNCTION     0.75     1.45     8.03     0  03:02        1.44
  WS02006111           JUNCTION     0.23     0.88     7.59     0  03:02        0.88
  WS02006112           JUNCTION     0.86     1.56     7.44     0  03:02        1.55
  WS02006113           JUNCTION     0.34     0.92     7.82     0  03:02        0.92
  WS02006115           JUNCTION     0.57     1.22     7.35     0  03:02        1.21
  WS02006116           JUNCTION     0.66     1.26     7.30     0  03:02        1.26
  WS02006230           JUNCTION     0.75     1.88     8.62     0  03:02        1.87
  WS02006231           JUNCTION     0.50     1.53     8.65     0  03:02        1.51
  WS02006232           JUNCTION     0.63     1.62     8.66     0  03:02        1.61
  WS02006234           JUNCTION     0.55     1.52     8.68     0  03:02        1.52
  WS02006235           JUNCTION     0.59     1.54     8.70     0  03:02        1.53
  WS02006238           JUNCTION     0.61     1.56     8.70     0  03:02        1.54
  WS02006240           JUNCTION     0.49     1.40     8.69     0  03:02        1.40
  WS02006242           JUNCTION     0.54     1.43     8.70     0  03:02        1.42
  WS02006243           JUNCTION     0.41     1.28     8.70     0  03:02        1.27
  WS02006245           JUNCTION     0.38     1.21     8.70     0  03:01        1.20
  WS02006247           JUNCTION     0.39     1.19     8.69     0  03:01        1.19
  WS02006248           JUNCTION     0.32     1.10     8.69     0  02:58        1.10
  WS02006249           JUNCTION     0.34     1.09     8.69     0  02:55        1.09
  WS02006239           JUNCTION     0.56     1.49     8.70     0  03:02        1.48
  WS02006251           JUNCTION     0.31     1.18     8.85     0  02:55        1.09
  WS02006252           JUNCTION     0.22     0.63     8.87     0  02:55        0.55
  WS02006253           JUNCTION     0.34     1.24     8.88     0  02:55        1.12
  WS02006256           JUNCTION     1.74     2.35     9.28     0  00:00        2.35
  WS02004138           JUNCTION     0.19     0.20     7.45     0  00:00        0.19
  WS02004139           JUNCTION     0.71     0.79     5.70     0  03:07        0.79
  WS02004407           JUNCTION     0.22     0.40     6.71     0  03:03        0.40
  WS02006228           JUNCTION     0.77     1.83     8.48     0  03:02        1.82
  WS02006229           JUNCTION     0.75     1.90     8.59     0  03:02        1.89
  WS02006280           JUNCTION     0.07     0.30     8.57     0  03:05        0.30
  WS02006284           JUNCTION     0.37     0.65     9.04     0  03:02        0.64
  WS02006287           JUNCTION     0.10     0.39     9.34     0  03:02        0.39
  WSF200               JUNCTION     0.22     0.44     5.67     0  03:04        0.44
  HS02004901           JUNCTION     0.13     0.38    10.20     0  03:01        0.37
  HS02004881           JUNCTION     0.01     0.05     9.08     0  03:01        0.05
  HS02004876           JUNCTION     0.04     0.16     9.19     0  03:01        0.16
  HS02004870           JUNCTION     0.02     0.09     9.38     0  03:01        0.09
  HS02004862           JUNCTION     0.02     0.11     9.49     0  03:01        0.11
  HS02004856           JUNCTION     0.08     0.15     9.58     0  03:01        0.15
  HS02004852           JUNCTION     0.01     0.07     9.59     0  03:02        0.07
  HS02004848           JUNCTION     0.01     0.07     9.67     0  03:01        0.07
  HS02004842           JUNCTION     0.33     0.40     9.67     0  03:01        0.40
  HS02004837           JUNCTION     0.03     0.09     9.67     0  03:01        0.09
  HS02004830           JUNCTION     0.04     0.10     9.57     0  03:02        0.10
  HS02004824           JUNCTION     0.02     0.13     9.53     0  03:02        0.13
  HS02004817           JUNCTION     0.44     0.69     9.54     0  03:02        0.69
  HS02004807           JUNCTION     0.13     0.36     9.53     0  03:02        0.36
  HS02004802           JUNCTION     0.17     0.39     9.52     0  03:02        0.39
  HS02004799           JUNCTION     0.12     0.46     9.68     0  03:01        0.46
  HS02004792           JUNCTION     0.04     0.22     9.74     0  03:01        0.21
  HS02004788           JUNCTION     0.03     0.16    10.05     0  03:02        0.16
  HS02004785           JUNCTION     0.05     0.25    10.15     0  03:02        0.25
  HS02004777           JUNCTION     0.15     0.39    10.19     0  03:01        0.39
  HS02004770           JUNCTION     0.12     0.37    10.20     0  03:01        0.36
  HS02004480           JUNCTION     0.08     0.38     9.62     0  03:01        0.38
  HS02004479           JUNCTION     0.12     0.42     9.62     0  03:01        0.42
  HS02004478           JUNCTION     0.06     0.28     9.50     0  03:01        0.28
  YS02001745           JUNCTION     0.74     0.95     8.47     0  03:01        0.95
  YS02001748           JUNCTION     1.14     2.01     9.08     0  02:33        1.38
  YS02001751           JUNCTION     1.32     1.98     8.86     0  02:33        1.58
  YS02001754           JUNCTION     1.57     2.00     8.61     0  02:33        1.84
  YS02001762           JUNCTION     1.77     2.05     8.45     0  03:17        2.04
  YS02001765           JUNCTION     1.72     1.99     8.44     0  03:17        1.99
  YS02001767           JUNCTION     1.68     1.95     8.44     0  03:00        1.94
  YS02001770           JUNCTION     1.68     1.94     8.43     0  03:00        1.92
  YS02001774           JUNCTION     1.75     1.99     8.41     0  02:33        1.98
  YS02001779           JUNCTION     1.49     1.68     8.37     0  02:33        1.68
  YS02001882           JUNCTION     0.55     1.63     8.35     0  02:59        1.63
  YS02001884           JUNCTION     0.64     1.74     8.35     0  03:00        1.73
  YS02001759           JUNCTION     1.80     2.09     8.45     0  03:17        2.08
  YS02001887           JUNCTION     0.72     1.82     8.35     0  03:00        1.80
  YS02001890           JUNCTION     0.75     1.81     8.32     0  02:50        1.81
  YS02001898           JUNCTION     0.52     1.56     8.30     0  02:52        1.56
  YS02001901           JUNCTION     0.64     1.68     8.29     0  02:59        1.67
  YS02001904           JUNCTION     0.61     1.64     8.27     0  03:06        1.63
  YS02001907           JUNCTION     0.94     1.96     8.25     0  02:50        1.96
  YS02001910           JUNCTION     0.73     1.78     8.29     0  02:52        1.77
  YS02001915           JUNCTION     0.53     1.60     8.32     0  02:52        1.59
  YS02001918           JUNCTION     0.29     1.29     8.35     0  02:51        1.27
  YS02001619           JUNCTION     1.28     1.58     8.51     0  02:30        1.48
  YS02001629           JUNCTION     1.63     1.84     8.39     0  02:41        1.84
  YS02001641           JUNCTION     1.73     1.94     8.37     0  02:39        1.93
  YS02001644           JUNCTION     1.73     1.92     8.35     0  02:39        1.92
  YS02001652           JUNCTION     1.58     2.16     8.76     0  02:46        1.87
  YS02001655           JUNCTION     1.34     2.20     9.05     0  02:46        1.67
  YS02001920           JUNCTION     0.39     1.37     8.37     0  02:51        1.34
  YS02001923           JUNCTION     0.23     1.12     8.38     0  02:51        1.10
  YS02001926           JUNCTION     0.28     0.95     8.39     0  02:51        0.94
  YS02001929           JUNCTION     0.16     0.71     8.41     0  02:52        0.71
  YS02001658           JUNCTION     1.08     2.25     9.40     0  02:46        1.43
  YS02001661           JUNCTION     0.85     2.46     9.86     0  02:46        1.21
  YS02001664           JUNCTION     0.38     0.57     8.50     0  02:42        0.56
  YS02001622           JUNCTION     1.30     1.54     8.44     0  02:30        1.50
  YS02001633           JUNCTION     1.72     1.95     8.40     0  02:57        1.94
  YS02001649           JUNCTION     1.78     2.05     8.44     0  02:43        2.04
  YS02001757           JUNCTION     1.90     2.19     8.45     0  03:17        2.18
  YS02001895           JUNCTION     0.51     1.57     8.31     0  03:10        1.56
  YS02001625           JUNCTION     1.58     1.78     8.38     0  02:32        1.78
  YS02163301           JUNCTION     1.66     1.88     8.40     0  02:56        1.88
  YS02163601           JUNCTION     1.77     1.99     8.39     0  02:39        1.98
  YS02164001           JUNCTION     1.71     1.92     8.38     0  02:40        1.91
  YS02001647           JUNCTION     1.56     1.80     8.41     0  02:47        1.78
  YSB1154              JUNCTION     0.26     0.57     9.62     0  03:01        0.57
  YSB6556              JUNCTION     0.15     0.45     9.62     0  03:02        0.45
  YSB1174              JUNCTION     0.21     0.52     9.62     0  03:01        0.51
  YSB1171              JUNCTION     0.41     0.72     9.62     0  03:01        0.72
  YS02006553           JUNCTION     0.94     2.02     8.30     0  02:56        1.96
  YS02006561           JUNCTION     0.30     1.22     7.88     0  02:56        1.09
  YS02006556           JUNCTION     0.91     2.06     8.37     0  02:56        1.94
  YS02006558           JUNCTION     0.95     2.12     8.39     0  02:56        1.98
  YS02001783           JUNCTION     0.53     1.65     7.79     0  02:56        1.49
  YS02001784           JUNCTION     0.55     1.62     7.69     0  02:56        1.43
  YS02001786           JUNCTION     0.49     1.46     7.49     0  02:56        1.28
  YS02001788           JUNCTION     0.42     1.37     7.35     0  02:56        1.14
  YS02001790           JUNCTION     0.55     1.96     7.60     0  02:56        1.30
  YS02001791           JUNCTION     0.53     2.16     7.63     0  02:56        1.27
  YS02001793           JUNCTION     0.74     2.00     6.83     0  04:44        1.80
  WSC                  OUTFALL      0.34     0.48     1.15     0  03:07        0.48
  JK-storage           STORAGE      3.07     5.80     6.60     0  02:15        5.80
  CC-storage           STORAGE      1.16     1.45     8.45     0  03:16        1.45
  XR-storage           STORAGE      6.56     7.72     5.72     0  03:00        7.72
  
  
  *******************
  Node Inflow Summary
  *******************
  
  -------------------------------------------------------------------------------------------------
                                  Maximum  Maximum                  Lateral       Total        Flow
                                  Lateral    Total  Time of Max      Inflow      Inflow     Balance
                                   Inflow   Inflow   Occurrence      Volume      Volume       Error
  Node                 Type           LPS      LPS  days hr:min    10^6 ltr    10^6 ltr     Percent
  -------------------------------------------------------------------------------------------------
  WS02001211           JUNCTION      7.35   393.18     0  03:15       0.207        10.1       0.405
  WS02001212           JUNCTION      0.00   399.12     0  03:15           0        10.1       0.247
  WS02001213           JUNCTION      0.00   404.27     0  03:14           0        10.1       0.296
  WS02003069           JUNCTION      0.32  1333.58     0  03:05     0.00902        18.6       0.211
  WS02003072           JUNCTION      0.00  1333.24     0  03:06           0        18.6       0.247
  WS02003073           JUNCTION      1.82  1335.12     0  03:06      0.0514        18.6       0.288
  WS02003060           JUNCTION     16.53  1333.41     0  03:05       0.466        18.7       0.199
  WS02003066           JUNCTION      0.00   939.08     0  03:04           0         8.2       0.066
  WS02003059           JUNCTION      0.00   410.81     0  03:14           0          10       0.416
  WS02003067           JUNCTION      0.00   938.69     0  03:04           0        8.21       0.132
  WS02004401           JUNCTION      0.00   939.42     0  03:02           0        8.49       0.298
  WS02004402           JUNCTION      0.00   939.41     0  03:02           0        8.46       0.276
  WS02004403           JUNCTION      0.00   939.46     0  03:03           0        8.44       0.247
  WS02004404           JUNCTION      0.16   939.81     0  03:02     0.00457        8.42       0.180
  WS02004406           JUNCTION      0.00   939.78     0  03:02           0        8.39       0.441
  WS02004409           JUNCTION      0.00   939.66     0  03:03           0        8.34       0.254
  WS02004410           JUNCTION      0.00   938.85     0  03:03           0        8.32       0.280
  WS02004411           JUNCTION      0.00   938.51     0  03:03           0        8.29       0.282
  WS02004412           JUNCTION      0.00   938.30     0  03:04           0        8.27       0.296
  WS02004413           JUNCTION      0.00   938.53     0  03:04           0        8.25       0.426
  WS02004405           JUNCTION      0.04   940.98     0  03:02     0.00107        8.41       0.268
  WS02006109           JUNCTION      1.23   915.44     0  03:02      0.0347        8.54       0.241
  WS02006110           JUNCTION      0.00   915.40     0  03:02           0        8.52       0.254
  WS02006111           JUNCTION      0.00   915.68     0  03:02           0        8.49       0.063
  WS02006112           JUNCTION     30.67   939.16     0  03:02      0.0853        8.57       0.396
  WS02006113           JUNCTION      0.00   915.37     0  03:02           0         8.5       0.149
  WS02006115           JUNCTION      0.00   939.21     0  03:02           0        8.53       0.302
  WS02006116           JUNCTION      0.00   939.40     0  03:02           0        8.51       0.259
  WS02006230           JUNCTION     10.28   435.87     0  07:44        0.29        6.13       0.287
  WS02006231           JUNCTION      0.00   425.60     0  07:44           0        5.85       0.240
  WS02006232           JUNCTION      0.00   425.60     0  07:44           0        5.87       0.311
  WS02006234           JUNCTION      0.00   425.60     0  07:44           0        5.88       0.185
  WS02006235           JUNCTION      0.00   425.60     0  07:44           0        5.95       0.197
  WS02006238           JUNCTION      0.00   235.21     0  03:10           0        2.22       0.406
  WS02006240           JUNCTION      0.00   234.98     0  03:10           0        2.19       0.759
  WS02006242           JUNCTION      0.00   234.79     0  03:10           0        2.18       0.854
  WS02006243           JUNCTION      0.00   233.09     0  03:10           0        2.19       0.781
  WS02006245           JUNCTION      0.00   225.42     0  03:09           0        2.19       0.650
  WS02006247           JUNCTION      0.00   223.22     0  03:09           0         2.2       0.454
  WS02006248           JUNCTION      0.00   219.70     0  03:08           0        2.21       0.260
  WS02006249           JUNCTION      0.00   337.79     0  03:00           0        2.32       0.644
  WS02006239           JUNCTION      0.00   235.55     0  03:10           0         2.2       0.454
  WS02006251           JUNCTION      0.08   337.07     0  03:00     0.00217        2.35       0.443
  WS02006252           JUNCTION      0.00   200.00     0  03:40           0        1.86       0.024
  WS02006253           JUNCTION      3.75   143.69     0  03:01      0.0103       0.492       1.154
  WS02006256           JUNCTION      0.00   983.00     0  02:30           0        9.62      -0.009
  WS02004138           JUNCTION      0.00   380.00     0  00:00           0        9.98       0.064
  WS02004139           JUNCTION      0.32   395.85     0  00:00     0.00905        9.98       0.462
  WS02004407           JUNCTION      0.00   939.78     0  03:02           0        8.35       0.113
  WS02006228           JUNCTION      0.00   913.99     0  03:02           0        8.52       0.193
  WS02006229           JUNCTION      0.00   918.41     0  03:01           0        8.54       0.178
  WS02006280           JUNCTION      0.00   680.04     0  03:02           0        2.43       0.005
  WS02006284           JUNCTION      0.10   678.91     0  03:02      0.0027        2.43       0.046
  WS02006287           JUNCTION      0.00   677.53     0  03:02           0        2.43       0.030
  WSF200               JUNCTION      0.00   939.21     0  03:04           0         8.2       0.068
  HS02004901           JUNCTION     37.63    37.63     0  03:01       0.103       0.103       1.741
  HS02004881           JUNCTION     14.26   140.52     0  03:01      0.0422       0.463       0.060
  HS02004876           JUNCTION     25.66   127.62     0  03:01      0.0814       0.422       0.131
  HS02004870           JUNCTION     26.26   103.59     0  03:01      0.0799        0.34       0.035
  HS02004862           JUNCTION     25.49    79.37     0  03:01      0.0888       0.261       0.067
  HS02004856           JUNCTION     19.64    55.41     0  03:01      0.0601       0.173       0.845
  HS02004852           JUNCTION      0.00    37.84     0  03:01           0       0.113       0.053
  HS02004848           JUNCTION     55.75    55.75     0  03:01       0.197       0.197       0.028
  HS02004842           JUNCTION      0.00    16.84     0  03:01           0       0.097      15.491
  HS02004837           JUNCTION     50.35    65.69     0  03:01       0.318       0.402       0.204
  HS02004830           JUNCTION      0.15    64.78     0  03:01     0.00423       0.392       0.316
  HS02004824           JUNCTION     65.57   128.43     0  03:01       0.251       0.642       0.086
  HS02004817           JUNCTION      0.60   124.45     0  03:01      0.0169       0.658       2.599
  HS02004807           JUNCTION     48.45   165.79     0  03:01       0.147       0.788       0.554
  HS02004802           JUNCTION      0.00   165.31     0  03:04           0       0.785       0.507
  HS02004799           JUNCTION     38.67   445.98     0  03:01       0.119        1.42       0.191
  HS02004792           JUNCTION    184.82   411.72     0  03:01        0.54         1.3       0.033
  HS02004788           JUNCTION     58.68   233.42     0  03:02       0.219       0.758       0.053
  HS02004785           JUNCTION      0.15   182.17     0  03:01     0.00423        0.54       0.093
  HS02004777           JUNCTION      0.03   184.99     0  03:01    0.000846       0.541       0.972
  HS02004770           JUNCTION    154.22   188.93     0  03:01       0.441       0.542       0.578
  HS02004480           JUNCTION      0.00   517.13     0  03:01           0        1.66       0.069
  HS02004479           JUNCTION      0.00    75.44     0  03:02           0       0.258       0.286
  HS02004478           JUNCTION      0.00   676.97     0  03:02           0        2.43       0.011
  YS02001745           JUNCTION    438.14   438.14     0  03:01        3.01        3.02       0.377
  YS02001748           JUNCTION      0.04   582.59     0  02:32     0.00127        3.01       0.711
  YS02001751           JUNCTION      0.01   442.10     0  03:01     0.00031        2.98       0.787
  YS02001754           JUNCTION      0.26   442.81     0  03:01     0.00733        2.96       0.847
  YS02001762           JUNCTION      0.00   314.56     0  02:43           0        2.12       1.010
  YS02001765           JUNCTION      0.00   315.55     0  02:43           0        2.12       1.170
  YS02001767           JUNCTION      0.54   315.96     0  02:43      0.0151        2.15       1.694
  YS02001770           JUNCTION    552.50   699.65     0  03:16        3.37        4.17       0.768
  YS02001774           JUNCTION      0.00   700.12     0  03:17           0         2.8       0.908
  YS02001779           JUNCTION      0.01   699.80     0  03:17    0.000141        2.77       0.564
  YS02001882           JUNCTION      0.00    12.89     0  04:08           0      0.0208      11.643
  YS02001884           JUNCTION      0.00    22.11     0  02:41           0      0.0575      12.018
  YS02001759           JUNCTION    536.49   620.60     0  02:43        3.11         4.4       0.526
  YS02001887           JUNCTION    679.97   679.97     0  03:01        3.56         3.6       0.241
  YS02001890           JUNCTION      0.00   681.03     0  03:01           0        3.55       0.263
  YS02001898           JUNCTION      0.00   518.49     0  02:59           0        3.45       0.093
  YS02001901           JUNCTION      0.00   518.07     0  03:00           0        3.45       0.198
  YS02001904           JUNCTION      0.00   518.28     0  02:59           0        3.44       0.181
  YS02001907           JUNCTION      0.00  1112.44     0  03:01           0        7.77       0.311
  YS02001910           JUNCTION      0.00   595.19     0  03:01           0        4.34       0.279
  YS02001915           JUNCTION    389.26   595.10     0  03:01        2.52        4.35       0.136
  YS02001918           JUNCTION      0.00   261.15     0  02:52           0        1.84       0.080
  YS02001619           JUNCTION    380.66   380.66     0  03:01        2.51        2.51       0.490
  YS02001629           JUNCTION      0.00   198.24     0  02:39           0        1.59       1.843
  YS02001641           JUNCTION      0.00   415.92     0  02:39           0        4.45       0.479
  YS02001644           JUNCTION    416.76  1527.30     0  03:01         2.9          12       0.223
  YS02001652           JUNCTION      0.00   501.62     0  03:01           0        2.62       0.905
  YS02001655           JUNCTION      0.15   501.37     0  03:01     0.00434        2.65       0.921
  YS02001920           JUNCTION      2.87   261.43     0  02:52      0.0809        1.84       0.155
  YS02001923           JUNCTION      0.04   234.16     0  02:52     0.00106        1.76       0.052
  YS02001926           JUNCTION      0.05   201.98     0  03:01     0.00147        1.75       0.198
  YS02001929           JUNCTION    189.18   189.18     0  03:01        1.75        1.75       0.036
  YS02001658           JUNCTION      0.00   610.56     0  02:29           0        2.68       0.805
  YS02001661           JUNCTION      0.00   654.18     0  02:43           0        3.13       0.000
  YS02001664           JUNCTION    492.63   492.63     0  03:01        2.67        3.12       0.190
  YS02001622           JUNCTION      0.00   381.00     0  03:01           0         2.5       1.294
  YS02001633           JUNCTION    423.29   423.29     0  03:01        2.99        4.52       0.717
  YS02001649           JUNCTION      0.00   867.84     0  02:40           0        6.84       0.547
  YS02001757           JUNCTION      0.00  1675.77     0  02:40           0        8.81       1.055
  YS02001895           JUNCTION      0.00   519.47     0  02:59           0        3.45       0.145
  YS02001625           JUNCTION      0.00   408.19     0  03:01           0        2.47       1.586
  YS02163301           JUNCTION      0.00   209.53     0  02:30           0        1.57       1.571
  YS02163601           JUNCTION      0.11   416.25     0  02:39      0.0031        4.48       0.677
  YS02164001           JUNCTION      0.00   416.28     0  02:39           0        4.46       0.461
  YS02001647           JUNCTION      0.00   807.76     0  03:17           0        6.13       0.463
  YSB1154              JUNCTION     44.76    44.76     0  03:01       0.144       0.144       1.017
  YSB6556              JUNCTION      0.00    43.28     0  03:01           0       0.145       0.869
  YSB1174              JUNCTION     38.10    38.10     0  03:01       0.106       0.107       1.222
  YSB1171              JUNCTION      0.00    76.94     0  03:01           0       0.257       2.525
  YS02006553           JUNCTION      0.00   720.45     0  02:51           0         6.8       0.225
  YS02006561           JUNCTION      0.00  1145.02     0  02:56           0          10       0.001
  YS02006556           JUNCTION      0.00   720.39     0  02:51           0        6.81       0.167
  YS02006558           JUNCTION    587.14  1145.90     0  02:55        3.28        10.1       0.054
  YS02001783           JUNCTION      0.00  1144.85     0  02:56           0          10       0.023
  YS02001784           JUNCTION      1.06  1146.13     0  02:56      0.0299        10.1       0.035
  YS02001786           JUNCTION      0.06  1145.94     0  02:56     0.00159        10.1       0.035
  YS02001788           JUNCTION      0.07  1146.19     0  02:56       0.002        10.1       0.021
  YS02001790           JUNCTION      0.15  1156.76     0  02:52     0.00437        10.1       0.018
  YS02001791           JUNCTION      0.00  1272.56     0  02:54           0        10.1       0.006
  YS02001793           JUNCTION      0.00  1217.88     0  02:51           0        10.1      -0.023
  WSC                  OUTFALL       0.00  1335.26     0  03:07           0        18.5       0.000
  JK-storage           STORAGE       0.00  1192.30     0  02:51           0        10.2      -8.808
  CC-storage           STORAGE       0.00  1675.52     0  02:40           0        5.89       1.111
  XR-storage           STORAGE    1024.87  1024.87     0  03:01        12.7        13.3      -0.006
  
  
  **********************
  Node Surcharge Summary
  **********************
  
  Surcharging occurs when water rises above the top of the highest conduit.
  ---------------------------------------------------------------------
                                               Max. Height   Min. Depth
                                   Hours       Above Crown    Below Rim
  Node                 Type      Surcharged         Meters       Meters
  ---------------------------------------------------------------------
  WS02004401           JUNCTION        0.41          0.235        1.425
  WS02004402           JUNCTION        0.46          0.227        1.513
  WS02004403           JUNCTION        0.47          0.200        1.830
  WS02004404           JUNCTION        0.71          0.246        2.534
  WS02004406           JUNCTION        0.61          0.164        2.286
  WS02004413           JUNCTION        0.17          0.023        2.177
  WS02004405           JUNCTION        0.66          0.221        2.579
  WS02006109           JUNCTION        2.67          0.835        0.985
  WS02006110           JUNCTION        0.95          0.537        1.313
  WS02006111           JUNCTION        0.12          0.074        1.796
  WS02006112           JUNCTION        1.07          0.557        1.123
  WS02006113           JUNCTION        0.14          0.123        1.807
  WS02006115           JUNCTION        0.28          0.206        2.044
  WS02006116           JUNCTION        0.30          0.201        2.089
  WS02006230           JUNCTION        0.66          0.795        0.775
  WS02006231           JUNCTION        0.73          0.816        0.714
  WS02006232           JUNCTION        2.43          0.921        0.559
  WS02006234           JUNCTION        1.70          0.804        0.436
  WS02006235           JUNCTION        1.93          0.829        0.461
  WS02006238           JUNCTION        1.99          0.835        0.595
  WS02006240           JUNCTION        1.26          0.690        0.700
  WS02006242           JUNCTION        1.39          0.699        0.121
  WS02006243           JUNCTION        0.35          0.566        0.204
  WS02006245           JUNCTION        0.30          0.503        0.347
  WS02006247           JUNCTION        0.30          0.484        0.276
  WS02006248           JUNCTION        0.27          0.380        0.000
  WS02006249           JUNCTION        0.27          0.390        0.000
  WS02006239           JUNCTION        1.58          0.747        0.543
  WS02006251           JUNCTION        0.18          0.154        1.026
  WS02006252           JUNCTION        0.21          0.231        0.869
  WS02006253           JUNCTION        0.19          0.195        2.285
  WS02006256           JUNCTION        6.84          2.050        0.000
  WS02006228           JUNCTION        2.63          1.003        1.197
  YS02001748           JUNCTION        5.22          0.928        0.262
  YS02001751           JUNCTION        5.36          0.978        0.222
  YS02001754           JUNCTION        5.58          0.948        0.202
  YS02001762           JUNCTION        5.75          1.046        0.104
  YS02001765           JUNCTION        5.72          0.994        0.106
  YS02001767           JUNCTION        5.69          0.949        0.081
  YS02001770           JUNCTION        5.68          0.905        0.015
  YS02001774           JUNCTION        5.74          0.991        0.059
  YS02001779           JUNCTION        5.56          0.680        0.000
  YS02001882           JUNCTION        1.06          0.632        0.198
  YS02001884           JUNCTION        1.09          0.676        0.194
  YS02001759           JUNCTION        5.78          1.087        0.123
  YS02001887           JUNCTION        1.17          0.766        0.184
  YS02001890           JUNCTION        1.19          0.760        0.000
  YS02001898           JUNCTION        1.02          0.531        0.209
  YS02001901           JUNCTION        1.13          0.677        0.193
  YS02001904           JUNCTION        1.10          0.638        0.212
  YS02001907           JUNCTION        1.91          0.950        0.000
  YS02001910           JUNCTION        1.24          0.784        0.316
  YS02001915           JUNCTION        1.04          0.599        0.401
  YS02001918           JUNCTION        0.85          0.286        0.524
  YS02001619           JUNCTION        5.37          0.577        0.033
  YS02001629           JUNCTION        5.37          0.465        0.005
  YS02001641           JUNCTION        5.73          0.938        0.162
  YS02001644           JUNCTION        5.73          0.920        0.000
  YS02001652           JUNCTION        5.61          1.130        0.000
  YS02001655           JUNCTION        5.39          1.200        0.000
  YS02001920           JUNCTION        0.88          0.366        0.774
  YS02001658           JUNCTION        5.25          1.254        0.046
  YS02001661           JUNCTION        0.11          1.390        0.000
  YS02001622           JUNCTION        5.40          0.538        0.082
  YS02001633           JUNCTION        5.71          0.927        0.133
  YS02001649           JUNCTION        5.76          1.050        0.000
  YS02001757           JUNCTION        5.86          1.188        0.022
  YS02001895           JUNCTION        1.03          0.567        0.183
  YS02001625           JUNCTION        5.64          0.780        0.000
  YS02163301           JUNCTION        5.68          0.883        0.147
  YS02163601           JUNCTION        5.75          0.990        0.090
  YS02164001           JUNCTION        5.72          0.924        0.176
  YS02001647           JUNCTION        5.62          0.801        0.099
  YS02006553           JUNCTION        2.01          1.020        0.170
  YS02006561           JUNCTION        0.86          0.424        0.726
  YS02006556           JUNCTION        1.46          1.017        0.333
  YS02006558           JUNCTION        1.42          1.021        0.379
  YS02001783           JUNCTION        1.31          0.853        0.747
  YS02001784           JUNCTION        1.29          0.818        0.672
  YS02001786           JUNCTION        1.08          0.658        0.772
  YS02001788           JUNCTION        0.88          0.568        0.912
  YS02001790           JUNCTION        2.08          1.157        0.000
  YS02001791           JUNCTION        2.19          1.356        0.564
  YS02001793           JUNCTION        2.53          1.000        1.600
  
  
  *********************
  Node Flooding Summary
  *********************
  
  Flooding refers to all water that overflows a node, whether it ponds or not.
  --------------------------------------------------------------------------
                                                             Total   Maximum
                                 Maximum   Time of Max       Flood    Ponded
                        Hours       Rate    Occurrence      Volume     Depth
  Node                 Flooded       LPS   days hr:min    10^6 ltr    Meters
  --------------------------------------------------------------------------
  WS02006248              0.08     15.44      0  03:03       0.002     0.000
  WS02006249              0.19    226.22      0  03:00       0.100     0.000
  WS02006256              3.91    771.36      0  02:50       5.834     0.000
  YS02001779              3.30    699.80      0  03:17       2.755     0.000
  YS02001890              0.34    164.79      0  03:01       0.085     0.000
  YS02001907              0.72    730.08      0  03:01       0.955     0.000
  YS02001644              4.98   1526.88      0  03:01      10.545     0.000
  YS02001652              0.01     14.11      0  02:46       0.000     0.000
  YS02001655              0.01     22.53      0  02:46       0.000     0.000
  YS02001661              0.01    154.02      0  02:46       0.000     0.000
  YS02001649              0.01     42.19      0  02:46       0.000     0.000
  YS02001625              1.40    408.19      0  03:01       0.856     0.000
  YS02001790              0.01    192.17      0  04:46       0.000     0.000
  JK-storage              1.28    967.28      0  03:10       1.567     0.000
  XR-storage              3.43    644.75      0  03:01       2.558     0.000
  
  
  **********************
  Storage Volume Summary
  **********************
  
  --------------------------------------------------------------------------------------------------
                         Average     Avg  Evap Exfil       Maximum     Max    Time of Max    Maximum
                          Volume    Pcnt  Pcnt  Pcnt        Volume    Pcnt     Occurrence    Outflow
  Storage Unit           1000 m3    Full  Loss  Loss       1000 m3    Full    days hr:min        LPS
  --------------------------------------------------------------------------------------------------
  JK-storage               0.154      53     0     0         0.291     100       0  02:15     983.00
  CC-storage               3.239      21     0     0         4.046      26       0  03:16     210.36
  XR-storage               0.788      85     0     0         0.926     100       0  03:00     380.00
  
  
  ***********************
  Outfall Loading Summary
  ***********************
  
  ---------------------------------------------------------------------------------------------------------------------------------
                         Flow       Avg       Max       Total         Total         Total         Total         Total         Total
                         Freq      Flow      Flow      Volume           COD            SS            TN            TP         NH4-N
  Outfall Node           Pcnt       LPS       LPS    10^6 ltr            kg            kg            kg            kg            kg
  ---------------------------------------------------------------------------------------------------------------------------------
  WSC                   99.98    721.74   1335.26      18.544      2285.185      3941.764       147.488        17.390        89.321
  ---------------------------------------------------------------------------------------------------------------------------------
  System                99.98    721.74   1335.26      18.544      2285.185      3941.764       147.488        17.390        89.321
  
  
  ********************
  Link Flow Summary
  ********************
  
  -----------------------------------------------------------------------------
                                 Maximum  Time of Max   Maximum    Max/    Max/
                                  |Flow|   Occurrence   |Veloc|    Full    Full
  Link                 Type          LPS  days hr:min     m/sec    Flow   Depth
  -----------------------------------------------------------------------------
  WS02003066WSF200     CONDUIT    939.21     0  03:04      3.00    0.16    0.32
  WS02006287WS02006284 CONDUIT    678.81     0  03:02      2.38    0.31    0.39
  WS02006284WS02006280 CONDUIT    680.04     0  03:02      2.62    0.28    0.37
  WS02006280WS02006229 CONDUIT    680.15     0  03:02      3.85    0.15    0.50
  WS02006229WS02006228 CONDUIT    913.99     0  03:02      1.82    3.03    1.00
  WS02006256WS02006235 CONDUIT    288.92     0  00:00      4.23    3.06    1.00
  WS02006253WS02006251 CONDUIT    148.14     0  03:08      0.54    0.44    1.00
  WS02006252WS02006251 CONDUIT    200.51     0  03:00      1.97    0.74    1.00
  WS02006251WS02006249 CONDUIT    337.79     0  03:00      0.92    0.97    1.00
  WS02006249WS02006248 CONDUIT    219.70     0  03:08      1.01    1.20    1.00
  WS02006248WS02006247 CONDUIT    223.22     0  03:09      0.98    0.49    1.00
  WS02006247WS02006245 CONDUIT    225.42     0  03:09      0.95    1.79    1.00
  WS02006245WS02006243 CONDUIT    233.09     0  03:10      1.05    0.69    1.00
  WS02006243WS02006242 CONDUIT    234.79     0  03:10      0.90    0.50    1.00
  WS02006242WS02006240 CONDUIT    234.98     0  03:10      0.91    0.93    1.00
  WS02006240WS02006239 CONDUIT    235.55     0  03:10      0.91    0.74    1.00
  WS02006239WS02006238 CONDUIT    235.21     0  03:10      0.87    0.75    1.00
  WS02006238WS02006235 CONDUIT    236.09     0  03:10      1.45    0.53    1.00
  WS02006235WS02006234 CONDUIT    425.60     0  07:44      1.11    4.49    1.00
  WS02006234WS02006232 CONDUIT    425.60     0  07:44      1.39    0.86    1.00
  WS02006232WS02006231 CONDUIT    425.60     0  07:44      1.13    0.89    1.00
  WS02006231WS02006230 CONDUIT    425.59     0  07:44      1.34    6.46    1.00
  WS02006230WS02006229 CONDUIT    435.87     0  07:44      1.13    9.70    1.00
  WS02006228WS02006109 CONDUIT    914.21     0  03:02      1.82    3.99    1.00
  WS02006116WS02004401 CONDUIT    939.42     0  03:02      1.20    1.29    1.00
  WS02006115WS02006116 CONDUIT    939.40     0  03:02      1.20    1.21    1.00
  WS02006113WS02006111 CONDUIT    915.68     0  03:02      2.58    1.10    1.00
  WS02006112WS02006115 CONDUIT    939.21     0  03:02      1.20    0.55    1.00
  WS02006111WS02006112 CONDUIT    915.88     0  03:03      1.82    0.44    1.00
  WS02006110WS02006113 CONDUIT    915.37     0  03:02      1.82    0.83    1.00
  WS02006109WS02006110 CONDUIT    915.40     0  03:02      1.82    1.76    1.00
  WS02004411WS02004412 CONDUIT    938.30     0  03:04      1.24    1.33    0.92
  WS02004401WS02004402 CONDUIT    939.41     0  03:02      1.20    1.13    1.00
  WS02004413WS02003067 CONDUIT    938.69     0  03:04      1.55    0.40    0.72
  WS02004412WS02004413 CONDUIT    938.53     0  03:04      1.22    0.63    0.95
  WS02004410WS02004411 CONDUIT    938.51     0  03:03      1.23    1.28    0.94
  WS02004409WS02004410 CONDUIT    938.85     0  03:03      1.22    1.21    0.95
  WS02004407WS02004409 CONDUIT    939.66     0  03:03      1.67    0.33    0.68
  WS02004406WS02004407 CONDUIT    939.78     0  03:02      1.60    0.42    0.70
  WS02004405WS02004406 CONDUIT    939.78     0  03:02      1.20    1.85    1.00
  WS02004404WS02004405 CONDUIT    940.94     0  03:02      1.20    9.22    1.00
  WS02004403WS02004404 CONDUIT    939.64     0  03:02      1.20    0.68    1.00
  WS02004402WS02004403 CONDUIT    939.46     0  03:03      1.20    1.35    1.00
  WS02004139WS02001211 CONDUIT    385.83     0  03:15      0.90    0.49    0.64
  WS02004138WS02004139 CONDUIT    395.52     0  00:00      3.64    0.08    0.47
  WS02003067WS02003066 CONDUIT    939.08     0  03:04      1.65    0.30    0.50
  WS02001213WS02003059 CONDUIT    410.81     0  03:14      0.89    0.68    0.87
  WS02001212WS02001213 CONDUIT    404.27     0  03:14      1.32    0.62    0.56
  WS02001211WS02001212 CONDUIT    399.12     0  03:15      0.78    0.31    0.71
  WS02003072WS02003073 CONDUIT   1333.30     0  03:06      1.96    2.88    0.58
  WS02003069WS02003072 CONDUIT   1333.24     0  03:06      1.82    0.64    0.62
  WS02003060WS02003069 CONDUIT   1333.26     0  03:05      2.03    0.52    0.56
  WS02003059WS02003060 CONDUIT    418.05     0  03:14      0.95    0.27    0.77
  HS02004901HS02004770 CONDUIT     37.23     0  03:01      0.10    0.14    0.53
  HS02004876HS02004881 CONDUIT    127.62     0  03:01      1.21    1.36    0.15
  HS02004870HS02004876 CONDUIT    103.08     0  03:01      0.82    0.07    0.18
  HS02004842HS02004848 CONDUIT     16.84     0  03:01      0.07    0.01    0.33
  HS02004837HS02004842 CONDUIT     17.91     0  03:03      0.42    0.01    0.35
  HS02004830HS02004837 CONDUIT     64.63     0  03:01      0.67    0.06    0.14
  HS02004824HS02004830 CONDUIT     64.11     0  03:02      0.62    0.08    0.16
  HS02004817HS02004824 CONDUIT    123.85     0  03:01      0.31    0.06    0.58
  HS02004770HS02004777 CONDUIT    184.96     0  03:01      0.49    0.34    0.54
  HS02004799HS02004480 CONDUIT    444.27     0  03:01      1.07    0.56    0.60
  HS02004792HS02004799 CONDUIT    408.37     0  03:01      1.20    0.25    0.49
  HS02004788HS02004792 CONDUIT    232.93     0  03:02      1.28    0.15    0.26
  HS02004785HS02004788 CONDUIT    181.74     0  03:02      0.91    1.37    0.29
  HS02004777HS02004785 CONDUIT    182.02     0  03:01      0.57    0.22    0.45
  HS02004480HS02004478 CONDUIT    517.25     0  03:01      1.55    2.18    0.48
  HS02004479HS02004480 CONDUIT     77.29     0  03:02      0.30    0.07    0.57
  HS02004862HS02004870 CONDUIT     79.02     0  03:01      0.80    0.09    0.14
  HS02004848HS02004852 CONDUIT     37.84     0  03:01      0.53    0.04    0.10
  HS02004856HS02004862 CONDUIT     54.76     0  03:01      0.59    0.05    0.13
  HS02004852HS02004856 CONDUIT     37.75     0  03:02      0.34    0.04    0.16
  HS02004802HS02004478 CONDUIT    170.14     0  03:04      0.54    0.15    0.48
  HS02004478WS02006287 CONDUIT    677.53     0  03:02      2.11    0.19    0.36
  HS02004817HS02004807 CONDUIT    128.11     0  03:04      0.25    0.08    0.75
  HS02004807HS02004802 CONDUIT    165.31     0  03:04      0.46    0.32    0.53
  YS02001759YS02001757 CONDUIT    620.50     0  02:43      0.79    0.44    1.00
  YS02001762YS02001759 CONDUIT    313.76     0  02:43      0.40    0.36    1.00
  YS02001765YS02001762 CONDUIT    314.56     0  02:43      0.40    0.29    1.00
  YS02001770YS02001767 CONDUIT    315.42     0  02:43      0.40    1.25    1.00
  YS02001774YS02001770 CONDUIT    700.12     0  03:17      0.89    0.45    1.00
  YS02001779YS02001774 CONDUIT    699.79     0  03:17      0.89    0.35    1.00
  YS02001649YS02001757 CONDUIT    868.71     0  02:39      1.11    0.53    1.00
  YS02001767YS02001765 CONDUIT    315.55     0  02:43      0.40    0.40    1.00
  YS02006561YS02001783 CONDUIT   1144.85     0  02:56      2.28    0.59    1.00
  YS02001783YS02001784 CONDUIT   1145.07     0  02:56      2.28    1.58    1.00
  YS02001784YS02001785 CONDUIT   1145.88     0  02:56      2.28    2.67    1.00
  YS02001788YS02001790 CONDUIT   1156.60     0  02:52      2.71    0.85    1.00
  YS02001790YS02001791 CONDUIT   1272.56     0  02:54      3.43    1.38    1.00
  YS02001791YS02001793 CONDUIT   1217.88     0  02:51      6.52    0.52    1.00
  YS02001910YS02001907 CONDUIT    595.30     0  03:01      0.76    0.34    1.00
  YS02001786YS02001788 CONDUIT   1146.12     0  02:56      2.45    2.21    1.00
  YS02001915YS02001910 CONDUIT    595.19     0  03:01      0.76    0.30    1.00
  YS02001918YS02001915 CONDUIT    261.71     0  02:52      0.44    0.14    1.00
  YS02001923YS02001920 CONDUIT    258.56     0  02:52      0.75    0.12    1.00
  YS02001926YS02001923 CONDUIT    234.12     0  02:52      0.86    0.33    0.93
  YS02001929YS02001926 CONDUIT    201.92     0  03:01      0.92    0.10    0.83
  YS02001920YS02001918 CONDUIT    261.15     0  02:52      0.72    0.25    1.00
  YS02001629YS02163301 CONDUIT    209.53     0  02:30      0.27    0.26    1.00
  YS02001619YS02001622 CONDUIT    381.00     0  03:01      0.59    0.56    1.00
  YS02001622YS02001625 CONDUIT    381.13     0  03:01      0.49    0.20    1.00
  YS02001625YS02001629 CONDUIT    198.24     0  02:39      0.25    0.09    1.00
  YS02163301YS02001633 CONDUIT    211.59     0  02:30      0.27    0.20    1.00
  YS02163601YS02164001 CONDUIT    416.28     0  02:39      0.53    0.37    1.00
  YS02164001YS02001641 CONDUIT    415.92     0  02:39      0.53    0.57    1.00
  YS02001641YS02001644 CONDUIT    415.76     0  02:39      0.53    1.34    1.00
  YS02001647YS02001649 CONDUIT    807.76     0  03:17      1.03    0.43    1.00
  YS02006553YS02006556 CONDUIT    720.39     0  02:51      0.92    0.62    1.00
  YS02006556YS02006558 CONDUIT    719.26     0  02:51      0.92    0.57    1.00
  YSB6556YSB1171       CONDUIT     42.82     0  03:02      0.13    0.04    0.82
  YS02001907YS02006553 CONDUIT    720.45     0  02:51      0.80    0.85    1.00
  YS02006558YS02006561 CONDUIT   1145.02     0  02:56      4.05    2.53    1.00
  YS02001633YS02163601 CONDUIT    416.14     0  02:39      0.53    0.44    1.00
  YS02001644YS02001647 CONDUIT    807.94     0  03:17      1.03    0.47    1.00
  YS02001745YS02001748 CONDUIT    582.55     0  02:32      1.46    0.22    0.98
  YS02001748YS02001751 CONDUIT    442.09     0  03:01      1.03    0.22    1.00
  YS02001751YS02001754 CONDUIT    442.55     0  03:01      0.88    0.21    1.00
  YS02001754YS02001757 CONDUIT    442.55     0  03:01      0.56    0.18    1.00
  YS02001882YS02001884 CONDUIT     16.96     0  04:09      0.12    0.02    1.00
  YS02001884YS02001887 CONDUIT     22.11     0  02:41      0.08    0.03    1.00
  YS02001890YS02001895 CONDUIT    519.47     0  02:59      0.66    0.24    1.00
  YS02001895YS02001898 CONDUIT    518.49     0  02:59      0.66    0.90    1.00
  YS02001898YS02001901 CONDUIT    518.07     0  03:00      0.66    0.33    1.00
  YS02001901YS02001904 CONDUIT    518.28     0  02:59      0.66    0.80    1.00
  YS02001904YS02001907 CONDUIT    518.57     0  02:59      0.66    0.18    1.00
  YS02001887YS02001890 CONDUIT    681.03     0  03:01      0.87    1.17    1.00
  YS02001652YS02001649 CONDUIT    501.78     0  03:01      0.64    0.25    1.00
  YS02001655YS02001652 CONDUIT    501.62     0  03:01      0.94    0.24    1.00
  YS02001658YS02001655 CONDUIT    501.22     0  03:01      1.18    0.21    1.00
  YS02001661YS02001658 CONDUIT    610.56     0  02:29      1.52    0.24    1.00
  YS02001664YS02001661 CONDUIT    654.18     0  02:43      1.43    0.21    0.77
  YSB1154YSB6556       CONDUIT     43.28     0  03:01      0.18    0.08    0.73
  YSB1174YSB1171       CONDUIT     36.65     0  03:01      0.11    0.06    0.85
  YSB1171HS02004479    CONDUIT     75.44     0  03:02      0.54    0.05    0.68
  HS02004881HS02006253 CONDUIT    140.46     0  03:01      2.14    0.03    0.54
  YS02001793JiankangQianchi CONDUIT   1192.30     0  02:51     16.88    0.09    1.00
  YS02001757CaochengTiaoxuchi CONDUIT   1675.52     0  02:40      2.17    0.74    1.00
  WSF200WS02003060     CONDUIT    939.51     0  03:04      1.93    0.21    0.45
  1                    CONDUIT   1335.26     0  03:07      3.59    0.46    0.48
  CC-Pump-1            PUMP       200.00     0  03:40              1.00
  CC-Pump-2            PUMP         0.00     0  00:00              0.00
  JK-Pump-1            PUMP       300.00     0  00:00              1.00
  JK-Pump-2            PUMP       683.00     0  02:30              1.00
  XR-Pump-1            PUMP        95.00     0  00:00              1.00
  XR-Pump-2            PUMP        95.00     0  00:00              1.00
  XR-Pump-3            PUMP        95.00     0  00:00              1.00
  XR-Pump-4            PUMP        95.00     0  00:00              1.00
  
  
  ***************************
  Flow Classification Summary
  ***************************
  
  -------------------------------------------------------------------------------------
                      Adjusted    ---------- Fraction of Time in Flow Class ---------- 
                       /Actual         Up    Down  Sub   Sup   Up    Down  Norm  Inlet 
  Conduit               Length    Dry  Dry   Dry   Crit  Crit  Crit  Crit  Ltd   Ctrl  
  -------------------------------------------------------------------------------------
  WS02003066WSF200        1.00   0.01  0.02  0.00  0.00  0.97  0.00  0.00  0.74  0.00
  WS02006287WS02006284    1.00   0.03  0.01  0.00  0.63  0.32  0.00  0.00  0.65  0.00
  WS02006284WS02006280    1.00   0.04  0.00  0.00  0.00  0.00  0.00  0.96  0.00  0.00
  WS02006280WS02006229    1.00   0.04  0.00  0.00  0.01  0.02  0.00  0.93  0.00  0.00
  WS02006229WS02006228    1.00   0.00  0.00  0.00  1.00  0.00  0.00  0.00  0.00  0.00
  WS02006256WS02006235    1.00   0.00  0.00  0.00  1.00  0.00  0.00  0.00  0.00  0.00
  WS02006253WS02006251    1.00   0.02  0.02  0.00  0.96  0.00  0.01  0.00  0.00  0.00
  WS02006252WS02006251    1.00   0.18  0.00  0.00  0.03  0.00  0.79  0.00  0.00  0.00
  WS02006251WS02006249    1.00   0.00  0.00  0.00  1.00  0.00  0.00  0.00  0.28  0.00
  WS02006249WS02006248    1.00   0.00  0.01  0.00  0.88  0.00  0.11  0.00  0.00  0.00
  WS02006248WS02006247    1.00   0.01  0.00  0.00  0.99  0.00  0.00  0.00  0.16  0.00
  WS02006247WS02006245    1.00   0.00  0.00  0.00  0.99  0.00  0.00  0.00  0.00  0.00
  WS02006245WS02006243    1.00   0.00  0.00  0.00  0.95  0.00  0.00  0.05  0.00  0.00
  WS02006243WS02006242    1.00   0.00  0.00  0.00  1.00  0.00  0.00  0.00  0.23  0.00
  WS02006242WS02006240    1.00   0.00  0.00  0.00  1.00  0.00  0.00  0.00  0.00  0.00
  WS02006240WS02006239    1.00   0.00  0.00  0.00  0.95  0.00  0.00  0.05  0.01  0.00
  WS02006239WS02006238    1.00   0.00  0.00  0.00  1.00  0.00  0.00  0.00  0.13  0.00
  WS02006238WS02006235    1.00   0.00  0.00  0.00  1.00  0.00  0.00  0.00  0.00  0.00
  WS02006235WS02006234    1.00   0.00  0.00  0.00  0.96  0.00  0.04  0.00  0.00  0.00
  WS02006234WS02006232    1.00   0.00  0.00  0.00  1.00  0.00  0.00  0.00  0.09  0.00
  WS02006232WS02006231    1.00   0.00  0.00  0.00  1.00  0.00  0.00  0.00  0.00  0.00
  WS02006231WS02006230    1.00   0.00  0.00  0.00  0.58  0.00  0.42  0.00  0.00  0.00
  WS02006230WS02006229    1.00   0.00  0.00  0.00  1.00  0.00  0.00  0.00  0.00  0.00
  WS02006228WS02006109    1.00   0.00  0.00  0.00  1.00  0.00  0.00  0.00  0.00  0.00
  WS02006116WS02004401    1.00   0.01  0.00  0.00  0.99  0.00  0.00  0.00  0.00  0.00
  WS02006115WS02006116    1.00   0.01  0.00  0.00  0.99  0.00  0.00  0.00  0.00  0.00
  WS02006113WS02006111    1.00   0.01  0.00  0.00  0.03  0.96  0.00  0.00  0.18  0.00
  WS02006112WS02006115    1.00   0.01  0.00  0.00  0.99  0.00  0.00  0.00  0.00  0.00
  WS02006111WS02006112    1.00   0.01  0.00  0.00  0.99  0.00  0.00  0.00  0.90  0.00
  WS02006110WS02006113    1.00   0.00  0.00  0.00  0.99  0.00  0.00  0.00  0.00  0.00
  WS02006109WS02006110    1.00   0.00  0.00  0.00  0.99  0.00  0.00  0.00  0.00  0.00
  WS02004411WS02004412    1.00   0.02  0.00  0.00  0.98  0.00  0.00  0.00  0.00  0.00
  WS02004401WS02004402    1.00   0.01  0.00  0.00  0.99  0.00  0.00  0.00  0.00  0.00
  WS02004413WS02003067    1.00   0.02  0.01  0.00  0.00  0.00  0.97  0.00  0.00  0.00
  WS02004412WS02004413    1.00   0.02  0.00  0.00  0.98  0.00  0.00  0.00  0.01  0.00
  WS02004410WS02004411    1.00   0.02  0.00  0.00  0.98  0.00  0.00  0.00  0.00  0.00
  WS02004409WS02004410    1.00   0.02  0.00  0.00  0.98  0.00  0.00  0.00  0.02  0.00
  WS02004407WS02004409    1.00   0.02  0.00  0.00  0.98  0.00  0.00  0.00  0.95  0.00
  WS02004406WS02004407    1.00   0.00  0.02  0.00  0.98  0.00  0.00  0.00  0.00  0.00
  WS02004405WS02004406    1.00   0.00  0.00  0.00  1.00  0.00  0.00  0.00  0.00  0.00
  WS02004404WS02004405    1.00   0.00  0.00  0.00  1.00  0.00  0.00  0.00  0.00  0.00
  WS02004403WS02004404    1.00   0.00  0.01  0.00  0.99  0.00  0.00  0.00  0.00  0.00
  WS02004402WS02004403    1.00   0.01  0.00  0.00  0.99  0.00  0.00  0.00  0.00  0.00
  WS02004139WS02001211    1.00   0.00  0.00  0.00  1.00  0.00  0.00  0.00  0.00  0.00
  WS02004138WS02004139    1.00   0.00  0.00  0.00  1.00  0.00  0.00  0.00  1.00  0.00
  WS02003067WS02003066    1.00   0.03  0.00  0.00  0.97  0.00  0.00  0.00  0.00  0.00
  WS02001213WS02003059    1.00   0.00  0.00  0.00  1.00  0.00  0.00  0.00  0.00  0.00
  WS02001212WS02001213    1.00   0.00  0.00  0.00  0.92  0.00  0.08  0.00  0.00  0.00
  WS02001211WS02001212    1.00   0.00  0.00  0.00  1.00  0.00  0.00  0.00  0.00  0.00
  WS02003072WS02003073    1.00   0.00  0.00  0.00  0.00  0.00  0.00  1.00  0.00  0.00
  WS02003069WS02003072    1.00   0.00  0.00  0.00  1.00  0.00  0.00  0.00  0.12  0.00
  WS02003060WS02003069    1.00   0.00  0.00  0.00  0.99  0.01  0.00  0.00  0.08  0.00
  WS02003059WS02003060    1.00   0.00  0.00  0.00  1.00  0.00  0.00  0.00  0.01  0.00
  HS02004901HS02004770    1.00   0.04  0.00  0.00  0.96  0.00  0.00  0.00  0.00  0.00
  HS02004876HS02004881    1.00   0.01  0.00  0.00  0.91  0.08  0.00  0.00  0.00  0.00
  HS02004870HS02004876    1.00   0.00  0.00  0.00  0.99  0.00  0.00  0.00  0.95  0.00
  HS02004842HS02004848    1.00   0.00  0.04  0.00  0.96  0.00  0.00  0.00  0.54  0.00
  HS02004837HS02004842    1.00   0.00  0.00  0.00  1.00  0.00  0.00  0.00  0.11  0.00
  HS02004830HS02004837    1.00   0.00  0.00  0.00  1.00  0.00  0.00  0.00  0.99  0.00
  HS02004824HS02004830    1.00   0.00  0.00  0.00  1.00  0.00  0.00  0.00  0.01  0.00
  HS02004817HS02004824    1.00   0.00  0.00  0.00  1.00  0.00  0.00  0.00  0.97  0.00
  HS02004770HS02004777    1.00   0.00  0.04  0.00  0.96  0.00  0.00  0.00  0.03  0.00
  HS02004799HS02004480    1.00   0.00  0.01  0.00  0.95  0.00  0.03  0.00  0.00  0.00
  HS02004792HS02004799    1.00   0.00  0.00  0.00  1.00  0.00  0.00  0.00  0.98  0.00
  HS02004788HS02004792    1.00   0.00  0.00  0.00  1.00  0.00  0.00  0.00  0.98  0.00
  HS02004785HS02004788    1.00   0.00  0.00  0.00  1.00  0.00  0.00  0.00  0.00  0.00
  HS02004777HS02004785    1.00   0.00  0.00  0.00  1.00  0.00  0.00  0.00  0.12  0.00
  HS02004480HS02004478    1.00   0.04  0.00  0.00  0.70  0.00  0.00  0.26  0.00  0.00
  HS02004479HS02004480    1.00   0.01  0.00  0.00  0.99  0.00  0.00  0.00  0.12  0.00
  HS02004862HS02004870    1.00   0.00  0.00  0.00  1.00  0.00  0.00  0.00  0.04  0.00
  HS02004848HS02004852    1.00   0.04  0.00  0.00  0.96  0.00  0.00  0.00  0.64  0.00
  HS02004856HS02004862    1.00   0.00  0.05  0.00  0.95  0.00  0.00  0.00  0.83  0.00
  HS02004852HS02004856    1.00   0.04  0.00  0.00  0.96  0.00  0.00  0.00  0.80  0.00
  HS02004802HS02004478    1.00   0.04  0.00  0.00  0.96  0.00  0.00  0.00  0.02  0.00
  HS02004478WS02006287    1.00   0.05  0.00  0.00  0.77  0.18  0.00  0.00  0.65  0.00
  HS02004817HS02004807    1.00   0.00  0.04  0.00  0.96  0.00  0.00  0.00  0.01  0.00
  HS02004807HS02004802    1.00   0.04  0.00  0.00  0.96  0.00  0.00  0.00  0.00  0.00
  YS02001759YS02001757    1.00   0.00  0.00  0.00  1.00  0.00  0.00  0.00  0.16  0.00
  YS02001762YS02001759    1.00   0.00  0.00  0.00  1.00  0.00  0.00  0.00  0.03  0.00
  YS02001765YS02001762    1.00   0.00  0.00  0.00  1.00  0.00  0.00  0.00  0.14  0.00
  YS02001770YS02001767    1.00   0.00  0.00  0.00  1.00  0.00  0.00  0.00  0.00  0.00
  YS02001774YS02001770    1.00   0.00  0.04  0.00  0.96  0.00  0.00  0.00  0.03  0.00
  YS02001779YS02001774    1.00   0.00  0.00  0.00  1.00  0.00  0.00  0.00  0.19  0.00
  YS02001649YS02001757    1.00   0.00  0.00  0.00  1.00  0.00  0.00  0.00  0.16  0.00
  YS02001767YS02001765    1.00   0.00  0.00  0.00  1.00  0.00  0.00  0.00  0.00  0.00
  YS02006561YS02001783    1.00   0.05  0.00  0.00  0.41  0.53  0.00  0.00  0.47  0.00
  YS02001783YS02001784    1.00   0.00  0.05  0.00  0.95  0.00  0.00  0.00  0.00  0.00
  YS02001784YS02001785    1.00   0.00  0.00  0.00  1.00  0.00  0.00  0.00  0.18  0.00
  YS02001788YS02001790    1.00   0.00  0.00  0.00  0.44  0.56  0.00  0.00  0.35  0.00
  YS02001790YS02001791    1.00   0.00  0.00  0.00  0.40  0.60  0.00  0.00  0.41  0.00
  YS02001791YS02001793    1.00   0.00  0.00  0.00  0.43  0.57  0.00  0.00  0.03  0.00
  YS02001910YS02001907    1.00   0.00  0.00  0.00  0.99  0.00  0.00  0.01  0.12  0.00
  YS02001786YS02001788    1.00   0.00  0.00  0.00  0.44  0.56  0.00  0.00  0.00  0.00
  YS02001915YS02001910    1.00   0.00  0.00  0.00  0.99  0.01  0.00  0.00  0.16  0.00
  YS02001918YS02001915    1.00   0.00  0.00  0.00  0.99  0.01  0.00  0.00  0.54  0.00
  YS02001923YS02001920    1.00   0.00  0.00  0.00  1.00  0.00  0.00  0.00  0.82  0.00
  YS02001926YS02001923    1.00   0.00  0.02  0.00  0.15  0.00  0.83  0.00  0.00  0.00
  YS02001929YS02001926    1.00   0.00  0.04  0.00  0.96  0.00  0.00  0.00  0.75  0.00
  YS02001920YS02001918    1.00   0.00  0.00  0.00  1.00  0.00  0.00  0.00  0.00  0.00
  YS02001629YS02163301    1.00   0.04  0.00  0.00  0.95  0.00  0.00  0.00  0.00  0.00
  YS02001619YS02001622    1.00   0.04  0.00  0.00  0.96  0.00  0.00  0.00  0.00  0.00
  YS02001622YS02001625    1.00   0.04  0.00  0.00  0.96  0.00  0.00  0.00  0.05  0.00
  YS02001625YS02001629    1.00   0.04  0.02  0.00  0.93  0.00  0.02  0.00  0.00  0.00
  YS02163301YS02001633    1.00   0.00  0.04  0.00  0.96  0.00  0.00  0.00  0.00  0.00
  YS02163601YS02164001    1.00   0.00  0.03  0.00  0.97  0.00  0.00  0.00  0.00  0.00
  YS02164001YS02001641    1.00   0.00  0.02  0.00  0.97  0.00  0.00  0.00  0.06  0.00
  YS02001641YS02001644    1.00   0.00  0.00  0.00  1.00  0.00  0.00  0.00  0.00  0.00
  YS02001647YS02001649    1.00   0.00  0.05  0.00  0.95  0.00  0.00  0.00  0.01  0.00
  YS02006553YS02006556    1.00   0.01  0.00  0.00  0.99  0.00  0.00  0.00  0.03  0.00
  YS02006556YS02006558    1.00   0.00  0.00  0.00  1.00  0.00  0.00  0.00  0.00  0.00
  YSB6556YSB1171          1.00   0.02  0.02  0.00  0.96  0.00  0.00  0.00  0.00  0.00
  YS02001907YS02006553    1.00   0.00  0.01  0.00  0.99  0.00  0.00  0.00  0.00  0.00
  YS02006558YS02006561    1.00   0.05  0.00  0.00  0.14  0.81  0.00  0.00  0.46  0.00
  YS02001633YS02163601    1.00   0.00  0.00  0.00  1.00  0.00  0.00  0.00  0.15  0.00
  YS02001644YS02001647    1.00   0.00  0.05  0.00  0.95  0.00  0.00  0.00  0.00  0.00
  YS02001745YS02001748    1.00   0.00  0.00  0.00  0.90  0.01  0.00  0.09  0.04  0.00
  YS02001748YS02001751    1.00   0.00  0.00  0.00  0.97  0.03  0.00  0.00  0.15  0.00
  YS02001751YS02001754    1.00   0.00  0.00  0.00  0.94  0.00  0.00  0.06  0.02  0.00
  YS02001754YS02001757    1.00   0.00  0.00  0.00  1.00  0.00  0.00  0.00  0.18  0.00
  YS02001882YS02001884    1.00   0.04  0.00  0.00  0.95  0.00  0.00  0.00  0.00  0.00
  YS02001884YS02001887    1.00   0.02  0.01  0.00  0.97  0.00  0.00  0.00  0.00  0.00
  YS02001890YS02001895    1.00   0.00  0.04  0.00  0.95  0.00  0.00  0.00  0.00  0.00
  YS02001895YS02001898    1.00   0.05  0.00  0.00  0.94  0.00  0.01  0.00  0.00  0.00
  YS02001898YS02001901    1.00   0.05  0.00  0.00  0.95  0.00  0.00  0.00  0.01  0.00
  YS02001901YS02001904    1.00   0.05  0.00  0.00  0.95  0.00  0.00  0.00  0.00  0.00
  YS02001904YS02001907    1.00   0.00  0.05  0.00  0.95  0.00  0.00  0.00  0.00  0.00
  YS02001887YS02001890    1.00   0.00  0.00  0.00  0.99  0.00  0.01  0.00  0.00  0.00
  YS02001652YS02001649    1.00   0.00  0.00  0.00  1.00  0.00  0.00  0.00  0.17  0.00
  YS02001655YS02001652    1.00   0.00  0.00  0.00  0.94  0.00  0.00  0.06  0.02  0.00
  YS02001658YS02001655    1.00   0.00  0.04  0.00  0.93  0.03  0.00  0.00  0.10  0.00
  YS02001661YS02001658    1.00   0.04  0.00  0.00  0.90  0.06  0.00  0.00  0.11  0.00
  YS02001664YS02001661    1.00   0.04  0.00  0.00  0.92  0.04  0.00  0.00  0.20  0.00
  YSB1154YSB6556          1.00   0.04  0.00  0.00  0.96  0.00  0.00  0.00  0.02  0.00
  YSB1174YSB1171          1.00   0.02  0.01  0.00  0.97  0.00  0.00  0.00  0.00  0.00
  YSB1171HS02004479       1.00   0.02  0.00  0.00  0.98  0.00  0.00  0.00  0.10  0.00
  HS02004881HS02006253    1.00   0.02  0.00  0.00  0.46  0.05  0.00  0.47  0.34  0.00
  YS02001793JiankangQianchi    1.00   0.00  0.00  0.00  0.70  0.30  0.00  0.00  0.39  0.00
  YS02001757CaochengTiaoxuchi    1.00   0.00  0.07  0.00  0.93  0.00  0.00  0.00  0.00  0.00
  WSF200WS02003060        1.00   0.00  0.01  0.00  0.99  0.00  0.00  0.00  0.57  0.00
  1                       1.00   0.00  0.00  0.00  0.00  1.00  0.00  0.00  0.39  0.00
  
  
  *************************
  Conduit Surcharge Summary
  *************************
  
  ----------------------------------------------------------------------------
                                                           Hours        Hours 
                         --------- Hours Full --------   Above Full   Capacity
  Conduit                Both Ends  Upstream  Dnstream   Normal Flow   Limited
  ----------------------------------------------------------------------------
  WS02006229WS02006228        2.63      2.75      2.63      3.85         2.63
  WS02006256WS02006235        5.87      5.88      6.84      4.60         0.01
  WS02006253WS02006251        0.26      0.26      0.26      0.01         0.01
  WS02006252WS02006251        0.18      0.18      0.21      0.01         0.01
  WS02006251WS02006249        0.26      0.26      0.27      0.01         0.01
  WS02006249WS02006248        0.27      0.27      0.27      1.36         0.01
  WS02006248WS02006247        0.27      0.27      0.30      0.01         0.01
  WS02006247WS02006245        0.30      0.30      0.30      2.27         0.17
  WS02006245WS02006243        0.31      0.31      0.35      0.01         0.01
  WS02006243WS02006242        0.36      0.36      1.39      0.01         0.01
  WS02006242WS02006240        1.26      1.26      1.56      0.01         0.01
  WS02006240WS02006239        1.35      1.35      1.58      0.01         0.01
  WS02006239WS02006238        1.80      1.80      1.99      0.01         0.01
  WS02006238WS02006235        1.98      1.98      2.16      0.01         0.02
  WS02006235WS02006234        1.70      1.70      1.93      5.76         0.01
  WS02006234WS02006232        1.84      1.84      2.43      0.01         0.01
  WS02006232WS02006231        0.73      0.73      2.43      0.01         0.01
  WS02006231WS02006230        0.66      0.66      0.76      6.06         0.01
[...]
  YS02001770YS02001767        5.69      5.69      5.69      0.54         0.61
  YS02001774YS02001770        5.68      5.68      5.74      0.01         0.01
  YS02001779YS02001774        5.56      5.56      5.74      0.01         0.01
  YS02001649YS02001757        5.76      5.76      5.86      0.01         0.01
  YS02001767YS02001765        5.69      5.69      5.72      0.01         0.01
  YS02006561YS02001783        0.86      0.86      1.31      0.01         0.01
  YS02001783YS02001784        1.26      1.31      1.29      1.59         1.18
  YS02001784YS02001785        1.08      1.29      1.08      2.46         1.08
  YS02001788YS02001790        0.88      0.88      2.08      0.01         0.01
  YS02001790YS02001791        2.08      2.08      2.19      1.12         0.89
  YS02001791YS02001793        2.19      2.19      2.65      0.01         0.01
  YS02001910YS02001907        1.24      1.24      1.91      0.01         0.01
  YS02001786YS02001788        0.88      1.08      0.88      2.11         0.87
  YS02001915YS02001910        1.04      1.04      1.24      0.01         0.01
  YS02001918YS02001915        0.85      0.85      1.04      0.01         0.01
  YS02001923YS02001920        0.71      0.71      0.88      0.01         0.01
  YS02001920YS02001918        0.85      0.85      0.88      0.01         0.01
  YS02001629YS02163301        5.67      5.67      5.68      0.01         0.01
  YS02001619YS02001622        5.37      5.37      5.40      0.01         0.01
  YS02001622YS02001625        5.40      5.40      5.64      0.01         0.01
  YS02001625YS02001629        5.37      5.37      5.64      0.01         0.01
  YS02163301YS02001633        5.68      5.68      5.72      0.01         0.01
  YS02163601YS02164001        5.72      5.72      5.75      0.01         0.01
  YS02164001YS02001641        5.72      5.72      5.73      0.01         0.02
  YS02001641YS02001644        5.72      5.73      5.73      1.72         2.02
  YS02001647YS02001649        5.62      5.62      5.76      0.01         0.01
  YS02006553YS02006556        1.46      1.46      2.01      0.01         0.01
  YS02006556YS02006558        1.70      1.70      2.07      0.01         0.01
  YSB6556YSB1171              0.01      0.01      0.07      0.01         0.01
  YS02001907YS02006553        2.54      2.54      2.75      0.01         0.01
  YS02006558YS02006561        0.97      1.42      0.97      2.36         0.97
  YS02001633YS02163601        5.71      5.71      5.75      0.01         0.01
  YS02001644YS02001647        5.62      5.62      5.73      0.01         0.01
  YS02001745YS02001748        0.01      0.01      5.22      0.01         0.01
  YS02001748YS02001751        5.27      5.27      5.36      0.01         0.01
  YS02001751YS02001754        5.36      5.36      5.58      0.01         0.01
  YS02001754YS02001757        5.62      5.62      5.86      0.01         0.01
  YS02001882YS02001884        1.06      1.06      1.09      0.01         0.01
  YS02001884YS02001887        1.14      1.14      1.17      0.01         0.01
  YS02001890YS02001895        1.03      1.03      1.26      0.01         0.01
  YS02001895YS02001898        1.02      1.02      1.03      0.01         0.01
  YS02001898YS02001901        1.04      1.04      1.13      0.01         0.01
  YS02001901YS02001904        1.10      1.10      1.13      0.01         0.01
  YS02001904YS02001907        1.10      1.10      2.02      0.01         0.01
  YS02001887YS02001890        1.19      1.19      1.22      0.16         0.01
  YS02001652YS02001649        5.63      5.63      5.76      0.01         0.01
  YS02001655YS02001652        5.39      5.39      5.61      0.01         0.01
  YS02001658YS02001655        5.25      5.25      5.39      0.01         0.01
  YS02001661YS02001658        0.10      0.10      5.25      0.01         0.01
  YS02001664YS02001661        0.01      0.01      1.45      0.01         0.01
  HS02004881HS02006253        0.01      0.01      0.19      0.01         0.01
  YS02001793JiankangQianchi        2.53      2.53      4.47      0.01         0.01
  YS02001757CaochengTiaoxuchi        5.11      5.11      5.86      0.01         0.01
  
  
  ***************
  Pumping Summary
  ***************
  
  ---------------------------------------------------------------------------------------------------------
                                                  Min       Avg       Max     Total     Power    % Time Off
                        Percent   Number of      Flow      Flow      Flow    Volume     Usage    Pump Curve
  Pump                 Utilized   Start-Ups       LPS       LPS       LPS  10^6 ltr     Kw-hr    Low   High
  ---------------------------------------------------------------------------------------------------------
  CC-Pump-1               51.06           5      0.00    145.70    200.00     1.860      1.10    0.0    0.0
  CC-Pump-2                0.00           0      0.00      0.00      0.00     0.000      0.00    0.0    0.0
  JK-Pump-1               65.94           4      0.00    223.11    300.00     4.115     58.28    0.0    0.0
  JK-Pump-2               46.81           4      0.00    386.00    683.00     5.508     75.94    0.0   97.6
  XR-Pump-1              100.00           1      0.00     94.04     95.00     2.622     26.70    0.0    0.0
  XR-Pump-2              100.00           1      0.00     93.55     95.00     2.565     25.44    0.0    0.0
  XR-Pump-3               93.62           3      0.00     93.66     95.00     2.394     21.74    0.0    0.0
  XR-Pump-4               93.62           3      0.00     93.66     95.00     2.394     21.74    0.0    0.0
  
  
  ***************************
  Link Pollutant Load Summary
  ***************************
  
  ------------------------------------------------------------------------------------------
                                 COD            SS            TN            TP         NH4-N
  Link                            kg            kg            kg            kg            kg
  ------------------------------------------------------------------------------------------
  WS02003066WSF200           758.071      1418.217        20.498         1.833        10.881
  WS02006287WS02006284       319.473       608.094        10.315         1.015         5.679
  WS02006284WS02006280       319.951       608.874        10.361         1.021         5.708
  WS02006280WS02006229       319.905       608.776        10.359         1.021         5.706
  WS02006229WS02006228       755.776      1414.485        19.934         1.754        10.515
  WS02006256WS02006235       244.306       448.375         5.517         0.435         2.807
  WS02006253WS02006251        57.115       113.234         1.191         0.085         0.580
  WS02006252WS02006251       161.962       295.741         3.420         0.251         1.690
  WS02006251WS02006249       215.652       402.747         4.572         0.336         2.256
  WS02006249WS02006248       202.814       377.568         4.308         0.317         2.127
  WS02006248WS02006247       202.213       376.473         4.295         0.316         2.121
  WS02006247WS02006245       201.415       375.036         4.277         0.314         2.111
  WS02006245WS02006243       200.339       373.125         4.251         0.312         2.098
  WS02006243WS02006242       199.062       370.834         4.225         0.310         2.086
  WS02006242WS02006240       197.611       368.215         4.194         0.308         2.070
  WS02006240WS02006239       196.756       366.656         4.178         0.307         2.063
  WS02006239WS02006238       197.409       367.649         4.218         0.312         2.086
  WS02006238WS02006235       197.754       368.020         4.244         0.315         2.102
  WS02006235WS02006234       438.562       810.383         9.644         0.739         4.845
  WS02006234WS02006232       438.178       809.671         9.641         0.739         4.844
  WS02006232WS02006231       437.604       808.627         9.627         0.738         4.837
  WS02006231WS02006230       436.982       807.506         9.614         0.737         4.830
  WS02006230WS02006229       436.435       806.629         9.596         0.735         4.820
  WS02006228WS02006109       755.123      1413.280        19.918         1.752        10.507
  WS02006116WS02004401       769.854      1439.593        20.779         1.855        11.025
  WS02006115WS02006116       770.945      1441.540        20.811         1.858        11.042
  WS02006113WS02006111       761.302      1422.618        20.662         1.847        10.977
  WS02006112WS02006115       772.054      1443.476        20.851         1.862        11.065
  WS02006111WS02006112       761.133      1422.408        20.655         1.847        10.973
  WS02006110WS02006113       761.939      1423.794        20.685         1.850        10.990
  WS02006109WS02006110       762.945      1425.607        20.723         1.854        11.012
  WS02004411WS02004412       761.572      1424.403        20.620         1.845        10.949
  WS02004401WS02004402       768.753      1437.649        20.742         1.852        11.004
  WS02004413WS02003067       758.814      1419.623        20.515         1.834        10.890
  WS02004412WS02004413       760.379      1422.296        20.581         1.841        10.928
  WS02004410WS02004411       762.632      1426.314        20.651         1.848        10.966
  WS02004409WS02004410       763.696      1428.205        20.685         1.851        10.985
  WS02004407WS02004409       764.623      1429.894        20.710         1.853        10.998
  WS02004406WS02004407       765.002      1430.650        20.714         1.853        10.999
  WS02004405WS02004406       766.471      1433.272        20.769         1.859        11.030
  WS02004404WS02004405       767.314      1434.873        20.768         1.857        11.027
  WS02004403WS02004404       766.808      1434.183        20.679         1.846        10.970
  WS02004402WS02004403       767.717      1435.786        20.711         1.849        10.988
  WS02004139WS02001211      1388.460      2305.145       112.754        13.764        69.504
  WS02004138WS02004139      1394.705      2315.584       113.234        13.822        69.798
  WS02003067WS02003066       758.317      1418.657        20.506         1.833        10.886
  WS02001213WS02003059      1421.420      2356.903       116.179        14.196        71.656
  WS02001212WS02001213      1430.507      2371.971       116.912        14.286        72.108
  WS02001211WS02001212      1432.744      2375.626       117.105        14.309        72.228
  WS02003072WS02003073      2279.250      3933.468       146.640        17.280        88.780
  WS02003069WS02003072      2284.263      3941.611       147.057        17.331        89.038
  WS02003060WS02003069      2286.927      3946.228       147.203        17.348        89.124
  WS02003059WS02003060      1418.171      2351.406       115.947        14.168        71.515
  HS02004901HS02004770        13.094        25.473         0.248         0.019         0.116
  HS02004876HS02004881        45.513        90.343         0.999         0.073         0.491
  HS02004870HS02004876        34.381        68.102         0.798         0.060         0.395
  HS02004842HS02004848         6.456        12.343         0.134         0.009         0.062
  HS02004837HS02004842        11.056        19.635         0.603         0.068         0.356
  HS02004830HS02004837        70.297       122.725         4.643         0.552         2.827
  HS02004824HS02004830        71.069       123.980         4.715         0.561         2.871
  HS02004817HS02004824        97.163       176.404         5.254         0.596         3.135
  HS02004770HS02004777        49.660        97.709         1.021         0.069         0.472
  HS02004799HS02004480       162.316       310.819         4.263         0.379         2.209
  HS02004792HS02004799       147.267       280.108         4.028         0.367         2.105
  HS02004788HS02004792        82.813       157.677         2.666         0.255         1.440
  HS02004785HS02004788        51.118       100.042         1.172         0.089         0.567
  HS02004777HS02004785        50.443        98.937         1.112         0.081         0.530
  HS02004480HS02004478       204.809       395.159         4.971         0.429         2.543
  HS02004479HS02004480        46.126        90.110         1.037         0.091         0.538
  HS02004862HS02004870        25.799        50.337         0.628         0.050         0.314
  HS02004848HS02004852        10.251        19.884         0.210         0.014         0.097
  HS02004856HS02004862        17.523        34.747         0.350         0.023         0.164
  HS02004852HS02004856        10.255        19.888         0.210         0.014         0.097
  HS02004802HS02004478       115.339       214.044         5.398         0.592         3.169
  HS02004478WS02006287       319.680       608.453        10.332         1.017         5.689
  HS02004817HS02004807        95.857       174.309         5.130         0.581         3.057
  HS02004807HS02004802       115.596       214.446         5.430         0.596         3.190
  YS02001759YS02001757       308.686       566.076         6.172         0.429         3.017
  YS02001762YS02001759       188.590       347.916         3.903         0.275         1.924
  YS02001765YS02001762       189.897       351.163         3.945         0.279         1.947
  YS02001770YS02001767       193.464       360.283         3.857         0.260         1.876
  YS02001774YS02001770       306.831       594.001         5.909         0.395         2.858
  YS02001779YS02001774       306.183       592.709         5.999         0.409         2.920
  YS02001649YS02001757       395.120       717.786         7.964         0.544         3.839
  YS02001767YS02001765       191.885       355.722         3.992         0.282         1.971
  YS02006561YS02001783      1033.504      1916.565        21.640         1.615        10.766
  YS02001783YS02001784      1033.376      1916.360        21.636         1.614        10.764
  YS02001784YS02001785      1040.704      1928.096        22.349         1.703        11.210
  YS02001788YS02001790      1041.302      1929.074        22.421         1.713        11.256
  YS02001790YS02001791      1042.302      1930.716        22.520         1.725        11.318
  YS02001791YS02001793      1042.259      1930.642        22.517         1.725        11.316
  YS02001910YS02001907       391.198       721.551         9.384         0.718         4.808
  YS02001786YS02001788      1040.908      1928.450        22.377         1.707        11.228
  YS02001915YS02001910       391.266       721.660         9.336         0.711         4.776
  YS02001918YS02001915       186.170       328.414         5.122         0.466         2.758
  YS02001923YS02001920       165.509       294.977         3.163         0.222         1.535
  YS02001926YS02001923       164.489       293.267         3.098         0.214         1.495
  YS02001929YS02001926       164.243       292.857         3.066         0.210         1.475
  YS02001920YS02001918       185.297       326.630         5.075         0.461         2.730
  YS02001629YS02163301        96.067       169.862         2.028         0.131         0.946
  YS02001619YS02001622       175.875       321.136         3.602         0.236         1.684
  YS02001622YS02001625       174.679       319.233         3.573         0.234         1.671
  YS02001625YS02001629        97.147       171.629         2.052         0.132         0.957
  YS02163301YS02001633        96.430       170.737         2.030         0.132         0.948
  YS02163601YS02164001       405.655       733.020         7.897         0.562         3.783
  YS02164001YS02001641       405.114       732.099         7.877         0.560         3.772
  YS02001641YS02001644       405.167       732.107         7.872         0.560         3.769
  YS02001647YS02001649       502.046       923.136        10.016         0.691         4.796
  YS02006553YS02006556       699.602      1287.048        15.014         1.149         7.553
  YS02006556YS02006558       699.529      1286.894        14.985         1.145         7.534
  YSB6556YSB1171              26.520        51.965         0.537         0.045         0.271
  YS02001907YS02006553       699.701      1287.260        15.022         1.150         7.558
  YS02006558YS02006561      1033.474      1916.518        21.639         1.614        10.766
  YS02001633YS02163601       406.378       734.146         7.878         0.558         3.767
  YS02001644YS02001647       507.613       933.395        10.103         0.697         4.836
  YS02001745YS02001748       250.702       468.534         5.566         0.389         2.775
  YS02001748YS02001751       248.378       464.178         5.588         0.396         2.799
  YS02001751YS02001754       247.458       462.654         5.577         0.396         2.796
  YS02001754YS02001757       248.207       463.771         5.742         0.419         2.902
  YS02001882YS02001884         2.903         5.014         0.059         0.005         0.030
  YS02001884YS02001887         6.782        12.014         0.134         0.010         0.067
  YS02001890YS02001895       451.064       846.639         8.303         0.624         4.050
  YS02001895YS02001898       450.924       846.466         8.297         0.624         4.047
  YS02001898YS02001901       450.710       846.096         8.293         0.624         4.045
  YS02001901YS02001904       450.576       845.913         8.300         0.625         4.050
  YS02001904YS02001907       450.780       846.213         8.352         0.632         4.084
  YS02001887YS02001890       468.318       880.855         8.646         0.653         4.223
  YS02001652YS02001649       203.618       378.511         4.097         0.295         1.921
  YS02001655YS02001652       204.070       379.261         4.109         0.296         1.927
  YS02001658YS02001655       203.379       378.174         4.018         0.284         1.869
  YS02001661YS02001658       206.854       384.446         4.087         0.289         1.901
  YS02001664YS02001661       220.811       406.710         4.414         0.311         2.050
  YSB1154YSB6556              26.084        51.269         0.486         0.038         0.239
  YSB1174YSB1171              18.021        35.561         0.361         0.029         0.181
  YSB1171HS02004479           46.090        90.054         1.040         0.092         0.540
  HS02004881HS02006253        51.356       102.238         1.106         0.080         0.543
  YS02001793JiankangQianchi      1042.765      1931.343        22.551         1.729        11.337
  YS02001757CaochengTiaoxuchi       504.034       915.233        10.703         0.779         5.284
  WSF200WS02003060           757.741      1417.550        20.496         1.833        10.881
  1                         2285.185      3941.764       147.488        17.390        89.321
  CC-Pump-1                  161.874       295.589         3.416         0.251         1.687
  CC-Pump-2                    0.000         0.000         0.000         0.000         0.000
  JK-Pump-1                  298.179       548.359         6.640         0.519         3.366
  JK-Pump-2                  472.659       882.807         9.714         0.721         4.816
  XR-Pump-1                  378.526       626.703        31.159         3.812        19.230
  XR-Pump-2                  365.884       606.474        29.945         3.660        18.472
  XR-Pump-3                  326.923       544.142        26.210         3.193        16.138
  XR-Pump-4                  326.923       544.142        26.210         3.193        16.138
  

  Analysis begun on:  Sun Jun 13 16:03:37 2021
  Analysis ended on:  Sun Jun 13 16:03:40 2021
  Total elapsed time: 00:00:03